<?xml version="1.0" encoding="UTF-8"?>

<!-- generated on 2024-09-15 20:29:12 by Eclipse SUMO polyconvert Version 1.20.0
<configuration xmlns:xsi="http://www.w3.org/2001/XMLSchema-instance" xsi:noNamespaceSchemaLocation="http://sumo.dlr.de/xsd/polyconvertConfiguration.xsd">

    <input>
        <net-file value="map.net.xml"/>
        <osm-files value="map.osm"/>
        <type-file value="typemap.xml"/>
    </input>

    <output>
        <output-file value="map.poly.xml"/>
    </output>

</configuration>
-->

<additional xmlns:xsi="http://www.w3.org/2001/XMLSchema-instance" xsi:noNamespaceSchemaLocation="http://sumo.dlr.de/xsd/additional_file.xsd">
    <location netOffset="-460473.81,-2347013.31" convBoundary="0.00,-0.00,35326.67,35273.52" origBoundary="86.619110,21.224245,86.959460,21.543366" projParameter="+proj=utm +zone=45 +ellps=WGS84 +datum=WGS84 +units=m +no_defs"/>

    <poly id="1125179803" type="building" color="255,230,230" fill="1" layer="-1.00" shape="32120.031662,31026.449715 32118.441334,31014.153955 32136.338111,31011.854711 32137.928431,31024.161540 32120.031662,31026.449715"/>
    <poly id="1156711390" type="residential" color="235,235,227" fill="1" layer="-3.00" shape="34624.975230,28925.701345 34530.212801,29061.732837 34488.231699,29104.833238 34432.713858,29121.009755 34446.268358,29170.833267 34416.498784,29240.858282 34384.061241,29454.966400 34328.562861,29560.018696 34344.839408,29635.419245 34282.557082,29708.155551 34329.982452,29755.267494 34286.644564,29791.628523 34227.039524,29749.910765 34155.283092,29799.751134 34151.263215,29953.253550 34113.388605,30093.308670 34135.098583,30215.823421 34117.500251,30246.797362 34014.578984,30265.691819 33917.055597,30228.016860 33871.019300,30242.852831 33785.712783,30307.508505 33693.617990,30302.151329 33623.202364,30325.065330 33604.271891,30392.398484 33313.121744,30475.993013 33261.732625,30680.670041 33189.992243,30753.403249 33129.052850,30766.896895 32992.264266,30754.832126 32925.911807,30777.747540 32896.141416,30847.775498 32927.317507,30897.579565 32877.256053,31016.082374 32832.568306,31028.220187 32745.916826,31076.722775 32645.738332,31172.358886 32655.240602,31207.362762 32636.311141,31289.506040 32567.268525,31336.651829 32567.287050,31379.739342 32613.349983,31437.616043 32663.455003,31429.515118 32664.832924,31479.331372 32586.296332,31508.982690 32521.299087,31519.779806 32511.863668,31615.377783 32460.428374,31682.715440 32377.828061,31677.372689 32348.042595,31704.314201 32325.053520,31782.408824 32176.135197,31863.260776 32058.328330,31894.271785 31963.523405,31878.167667 31916.133647,31886.269491 31887.704819,31910.510642 31847.075865,31891.681142 31756.322890,31859.417098 31684.559262,31859.451715 31685.892625,31832.522732 31507.148932,31848.769535 31333.853649,31926.940777 31193.072483,32029.335942 31187.699538,32114.152487 31180.971996,32203.009546 31144.433499,32243.426494 31087.560534,32255.564408 31055.048386,32231.353629 31063.111543,32103.448047 31045.456225,32010.563901 31073.880098,31979.580879 31178.095296,31886.633404 31113.059190,31818.001477 31033.187010,31859.780467 30980.363172,31834.230226 30922.158607,31896.186294 30877.490852,31919.098645 30801.689857,31979.725346 30803.058029,32020.111595 30750.259901,32041.678396 30660.882964,32047.117214 30583.681985,32026.960667 30552.526119,32004.089372 30549.761729,31893.699070 30567.341835,31864.071468 30632.355654,31869.414634 30635.018147,31795.368528 30570.015130,31791.364568 30548.361638,31815.604327 30519.916000,31806.201301 30479.260343,31742.948460 30460.258831,31675.643776 30462.927155,31594.857265 30358.643553,31581.446298 30277.379961,31561.304580 30244.919244,31631.327990 30169.056743,31601.753820 30110.809182,31568.129944 30055.292972,31582.971263 30070.233920,31646.238040 29990.349239,31681.292865 29887.413759,31653.086278 29834.607572,31661.186356 29784.460083,31595.251431 29685.533363,31586.445845 29620.221023,31468.047472 29647.126694,31396.111444 29611.627898,31338.325215 29550.632616,31320.034157 29457.041335,31349.698890 29353.504172,31341.307712 29268.347558,31245.479750 29293.821488,31155.215521 29248.384100,31074.868823 29127.764781,30984.697760 28988.765638,30967.864738 28873.902629,31003.191343 28822.805415,30951.061779 28807.127530,30831.206222 28737.580642,30760.749562 28692.115802,30645.153037 28704.860552,30605.654068 28750.197780,30529.476340 28882.093936,30512.477275 28916.187167,30599.880625 29209.775229,30577.123360 29206.856309,30450.220139 29152.958294,30457.304859 29133.050607,30376.931130 29259.224844,30285.196991 29236.507147,30248.543311 29193.960846,30255.620681 29158.477334,30211.936048 28985.410859,30173.974042 28894.625225,30162.744083 28837.861402,30113.429485 28758.431542,30123.354706 28711.552599,30017.620675 28674.674639,30013.417387 28605.111314,29924.621769 28551.204003,29904.912999 28531.353931,29914.799065 28488.718859,29807.657184 28590.840436,29790.665036 28823.449928,29779.220370 28877.316687,29721.365953 28821.863103,29525.389326 28904.105500,29471.744246 29009.094124,29511.166141 29118.314199,29511.095603 29193.430098,29423.610834 29271.383828,29317.796132 29322.434987,29290.968435 29393.404069,29376.943864 29478.581961,29492.528582 29617.640681,29570.007013 29655.939367,29575.628279 29722.654220,29654.557481 29895.740701,29702.399948 29953.898482,29712.238074 30073.010050,29659.993881 30037.501183,29571.172337 29962.360613,29623.390764 29905.610431,29612.146144 29841.730304,29526.153158 29809.060447,29458.481244 29636.003848,29447.307746 29484.163149,29338.813666 29481.254066,29224.583348 29519.483849,29100.466061 29672.650476,29052.414858 29754.946401,29096.083337 29825.854314,29065.017329 29801.675582,28959.266709 29811.547789,28873.229798 29848.404711,28821.033545 29568.722712,28448.878040 29616.946445,28434.747954 29652.343290,28314.849709 29614.014879,28282.433031 29538.874018,28341.714662 29448.048710,28282.535372 29272.035568,28104.950324 29155.574496,27893.472242 29254.857793,27856.729964 29301.632055,27808.754191 29321.468907,27756.556478 29381.041815,27748.052137 29412.200160,27676.113372 29494.468747,27646.444529 29602.276055,27636.505608 29617.838117,27571.615996 29634.853153,27561.733032 29636.243187,27513.774929 30029.121510,27379.551967 30057.602597,27560.063960 30138.472692,27581.178779 30180.992882,27497.934612 30369.662170,27492.193408 30427.796716,27447.025760 30429.154293,27337.010012 30559.654942,27312.964246 30629.223306,27410.246018 30782.409931,27363.611085 30897.353918,27424.201632 30964.056623,27474.945823 31070.639341,27834.530478 31171.342195,27789.343336 31158.528046,27710.369351 31220.926884,27675.085982 31206.693835,27576.367551 31425.127535,27511.376885 31486.217517,27696.103029 31361.414874,27758.223155 31431.025106,27952.817426 31555.829979,27897.748076 31655.137805,27900.521874 31704.845986,28035.891554 31821.158078,28006.218127 31910.503966,27952.585091 32049.521877,27938.419865 32146.013882,28014.533930 32150.297286,28070.945115 32039.673087,28124.586648 32045.387782,28206.386941 32123.398755,28195.061856 32150.389054,28272.624545 32032.666885,28319.219114 32078.107174,28419.329583 32205.780438,28410.804462 32370.388282,28364.123971 32419.951048,28350.068052 32573.177435,28405.009123 32724.952207,28385.199569 32776.098911,28567.101477 32842.770079,28567.073846 32856.919186,28488.087386 32943.417097,28409.082468 33046.953572,28373.778382 33127.857755,28475.294333 33245.573191,28432.935663 33174.584718,28282.063429 33354.983201,28232.708342 33458.287296,28235.414183 33499.490713,28414.499729 33560.480993,28401.793340 33549.269033,28336.662818 33541.586710,28292.028773 33530.623752,28228.325940 33641.264435,28208.551313 33661.150310,28283.285693 33737.751143,28266.335324 33780.342107,28365.045921 33729.284228,28401.732088 33743.486905,28431.344743 33898.091944,28384.749758 33873.952082,28317.055756 33893.782847,28236.662632 33808.662304,28212.719344 33733.437025,28108.375685 33668.130214,27961.727262 33655.325448,27846.083360 33770.218815,27833.347276 33764.595737,27956.048060 33835.516799,27956.023009 33829.800603,27814.986716 34018.449613,27757.102808 34022.671511,27651.325439 34070.883894,27585.023490 34232.598290,27582.147574 34290.833739,27785.224646 34363.166722,27759.811683 34329.099261,27679.425333 34419.882483,27651.195478 34483.753939,27764.001669 34549.006963,27756.931252 34591.534642,27659.598202 34672.396569,27675.090989 34817.090571,27641.202681 34941.976262,27823.101038 34804.387313,27882.375938 34780.283114,27926.101191 34835.654455,28068.528997 34896.648279,28060.055584 34890.962443,28029.022806 35051.247303,27966.931101 35068.286934,28036.034396 35224.312782,27966.884253 35278.257146,28095.202369 35120.824957,28208.081681 34839.987605,28329.442563 34845.691759,28423.927647 34783.282148,28474.725357 34807.457390,28677.792326 34830.160556,28700.353204 34960.654648,28669.292559 35000.346089,28542.354625 35078.360181,28540.927403 35128.030548,28611.427504 35259.969617,28673.438943 35306.785373,28686.121581 35326.668832,28783.425497 35294.086746,28810.993076 35203.280042,28887.817296 35135.178435,28841.295030 35007.498177,28780.689034 34850.040352,28775.100137 34737.989995,28818.851115 34624.975230,28925.701345"/>
    <poly id="1184386923" type="building" color="255,230,230" fill="1" layer="-1.00" shape="30644.567227,29661.540898 30653.201046,29671.154200 30642.330021,29680.811396 30633.685841,29671.198105 30644.567227,29661.540898"/>
    <poly id="1264821837" type="leisure" color="207,245,201" fill="1" layer="-2.00" shape="32134.097354,30799.971021 32223.544414,30795.923834 32231.611074,30791.548360 32231.226538,30765.671685 32227.553338,30751.085793 32206.656744,30739.805927 32146.901440,30736.180631 32129.306015,30741.290981 32134.097354,30799.971021"/>
    <poly id="1264821840" type="water" color="181,209,209" fill="1" layer="-4.00" shape="32012.507273,30975.653124 32016.331123,30979.768625 32046.967022,30975.947069 32048.561207,30974.042647 32045.035187,30942.002576 32040.569748,30939.149111 32011.849050,30941.066103 32004.507884,30946.149698 32008.674975,30975.654903 32012.507273,30975.653124"/>
    <poly id="1264821841" type="water" color="181,209,209" fill="1" layer="-4.00" shape="32064.863926,31063.740820 32099.289357,31057.371989 32095.499590,31037.163660 32086.244198,31023.842105 32063.905199,31028.611603 32060.721078,31041.617907 32064.863926,31063.740820"/>
    <poly id="1265189463" type="water" color="181,209,209" fill="1" layer="-4.00" shape="31976.489432,30477.125507 31984.489618,30485.500209 32000.704408,30473.351136 31993.956365,30462.474490 31976.489432,30477.125507"/>
    <poly id="1265189468" type="amenity" color="237,199,199" fill="1" layer="-1.00" shape="32175.428262,30557.342940 32185.451663,30573.619332 32230.683273,30548.430395 32219.990782,30495.419789 32172.380136,30505.291807 32152.456050,30515.051722 32175.428262,30557.342940"/>
    <poly id="1265189468#1" type="building" color="255,230,230" fill="1" layer="-1.00" shape="32175.428262,30557.342940 32185.451663,30573.619332 32230.683273,30548.430395 32219.990782,30495.419789 32172.380136,30505.291807 32152.456050,30515.051722 32175.428262,30557.342940"/>
    <poly id="1265189469" type="water" color="181,209,209" fill="1" layer="-4.00" shape="32413.442412,30230.765703 32438.751172,30216.399496 32424.116777,30196.262266 32398.051617,30210.075432 32413.442412,30230.765703"/>
    <poly id="1265189474" type="amenity" color="237,199,199" fill="1" layer="-1.00" shape="32308.829716,29889.963919 32392.663150,29922.698924 32418.273085,29861.858317 32432.478198,29823.501711 32439.356583,29777.234754 32437.201203,29775.298809 32353.383321,29779.198417 32337.458396,29816.471196 32318.730653,29863.186185 32308.829716,29889.963919"/>
    <poly id="1265189475" type="water" color="181,209,209" fill="1" layer="-4.00" shape="32438.540706,29877.477353 32458.586114,29906.178807 32476.894548,29894.815131 32476.463241,29879.607982 32465.246729,29859.258943 32459.860426,29859.261292 32438.540706,29877.477353"/>
    <poly id="1265197092" type="building" color="255,230,230" fill="1" layer="-1.00" shape="32058.709224,30025.526661 32117.723691,30011.553963 32114.081036,29996.403630 32054.589933,30010.144134 32058.709224,30025.526661"/>
    <poly id="1265206664" type="water" color="181,209,209" fill="1" layer="-4.00" shape="30770.502755,30156.054090 30772.455747,30166.545440 30790.514206,30174.548876 30808.019354,30174.539443 30821.350199,30174.532272 30835.518414,30171.480980 30836.066341,30150.219177 30834.388899,30131.980116 30828.270057,30117.904984 30804.092136,30114.044209 30783.811545,30115.161938 30775.771500,30130.362558 30769.112826,30152.457762 30770.502755,30156.054090"/>
    <poly id="1265206698" type="water" color="181,209,209" fill="1" layer="-4.00" shape="30205.710536,30773.905193 30209.236036,30798.651094 30231.575909,30795.782723 30228.371531,30771.036633 30205.710536,30773.905193"/>
    <poly id="1265206702" type="water" color="181,209,209" fill="1" layer="-4.00" shape="30004.206334,31081.456884 30010.910432,31086.212161 30026.550061,31085.882005 30046.970771,31078.576255 30051.747022,31063.343958 30051.740706,31052.552709 30046.952566,31047.486391 30028.120543,31043.999956 30007.696818,31046.236610 29995.892795,31052.275589 29995.257537,31064.007991 30004.206334,31081.456884"/>
    <poly id="1265213765" type="water" color="181,209,209" fill="1" layer="-4.00" shape="30492.692919,30628.376131 30523.635457,30616.615808 30516.605931,30585.529863 30476.405229,30600.460802 30483.428626,30620.445586 30488.228355,30627.736682 30492.692919,30628.376131"/>
    <poly id="1265213773" type="water" color="181,209,209" fill="1" layer="-4.00" shape="30623.061686,30921.139635 30630.077619,30928.119653 30644.444993,30930.646325 30657.848591,30932.232761 30665.183437,30916.357308 30670.915131,30904.622147 30670.591787,30900.493980 30653.363426,30893.840509 30633.246844,30890.044172 30626.237176,30894.486271 30619.543653,30908.767605 30623.061686,30921.139635"/>
    <poly id="1267913904" type="building" color="255,230,230" fill="1" layer="-1.00" shape="31246.247378,30495.600663 31254.321112,30505.292053 31261.638616,30514.795678 31273.151906,30505.669822 31271.079007,30503.069912 31267.972900,30505.528579 31262.769661,30498.492023 31257.680986,30492.695020 31260.476481,30490.480004 31257.460413,30486.707377 31246.247378,30495.600663"/>
    <poly id="442181538" type="water" color="181,209,209" fill="1" layer="-4.00" shape="32141.175407,29854.279007 32136.284977,29851.381440 32110.915280,29823.811751 32108.027284,29805.495648 32107.606570,29791.561316 32109.147633,29786.480430 32132.685465,29771.937477 32143.655629,29773.448780 32162.747611,29776.915420 32177.386370,29827.954066 32168.143517,29843.597249 32151.285445,29855.060224 32141.175407,29854.279007"/>
    <poly id="442181540" type="water" color="181,209,209" fill="1" layer="-4.00" shape="32320.325992,30003.250150 32343.645155,29963.052130 32288.895968,29926.342036 32262.375645,29965.301960 32298.092466,29992.358144 32320.325992,30003.250150"/>
    <poly id="442181541" type="water" color="181,209,209" fill="1" layer="-4.00" shape="30916.591638,30523.143607 30871.866209,30522.757936 30874.663811,30563.364722 30878.003973,30572.615737 30891.618713,30581.163991 30923.436236,30577.970556 30920.085236,30548.277046 30916.591638,30523.143607"/>
    <poly id="495167387" type="building" color="255,230,230" fill="1" layer="-1.00" shape="32523.496341,30134.404578 32572.981879,30194.050487 32647.129198,30131.042280 32588.479931,30054.554677 32523.496341,30134.404578"/>
    <poly id="495169830" type="leisure" color="207,245,201" fill="1" layer="-2.00" shape="32245.823902,30289.389570 32219.655895,30189.369354 32370.053640,30139.385815 32370.230867,30165.406450 32364.778109,30202.287218 32365.279399,30234.992744 32245.823902,30289.389570"/>
    <poly id="495172011" type="building" color="255,230,230" fill="1" layer="-1.00" shape="32024.619986,30695.241169 32044.195727,30694.390948 32043.362842,30707.573251 32024.626580,30709.474539 32024.619986,30695.241169"/>
    <poly id="495344143" type="amenity" color="237,199,199" fill="1" layer="-1.00" shape="31575.650499,30647.475880 31597.989574,30642.074839 31601.823971,30646.201304 31613.630280,30643.019031 31620.344930,30669.988325 31592.899980,30676.343680 31589.060921,30662.698789 31578.848483,30663.345739 31575.650499,30647.475880"/>
    <poly id="495344143#1" type="building" color="255,230,230" fill="1" layer="-1.00" shape="31575.650499,30647.475880 31597.989574,30642.074839 31601.823971,30646.201304 31613.630280,30643.019031 31620.344930,30669.988325 31592.899980,30676.343680 31589.060921,30662.698789 31578.848483,30663.345739 31575.650499,30647.475880"/>
    <poly id="495344444" type="tourism" color="207,245,201" fill="1" layer="-2.00" shape="31658.345384,30558.947296 31655.569367,30558.705150 31652.887040,30559.425870 31650.609076,30560.987558 31648.994348,30563.235135 31648.239519,30565.891808 31648.437659,30568.647629 31649.557531,30571.170575 31651.474702,30573.172939 31653.961182,30574.411340 31656.716518,30574.730971 31659.119289,30574.231746 31661.262777,30573.035367 31662.950237,30571.252609 31664.016023,30569.049571 31664.356654,30566.625527 31663.961885,30564.212907 31662.842181,30562.033067 31660.862895,30560.097138 31658.345384,30558.947296"/>
    <poly id="495344936" type="building" color="255,230,230" fill="1" layer="-1.00" shape="31699.386124,30715.173535 31691.814127,30671.337079 31712.579725,30667.796371 31711.478710,30661.388564 31721.939191,30659.601580 31725.657642,30681.126935 31731.374651,30680.150202 31733.046927,30689.867050 31728.665958,30690.610712 31731.148407,30705.042113 31726.705301,30705.796873 31727.110357,30708.087742 31723.029746,30708.786988 31723.424438,30711.066794 31699.386124,30715.173535"/>
    <poly id="495365219" type="building" color="255,230,230" fill="1" layer="-1.00" shape="32272.652167,30869.747070 32307.453661,30869.421613 32307.355932,30859.305557 32293.984274,30859.422204 32293.842876,30844.314525 32327.318651,30844.000771 32327.188498,30830.818910 32293.412323,30831.132798 32293.292347,30817.607826 32298.657596,30817.561158 32298.592367,30810.654792 32293.807145,30810.701200 32293.719824,30800.717956 32272.258810,30800.915712 32272.345768,30810.057793 32284.153458,30809.941828 32284.909042,30831.922423 32272.262541,30832.359734 32272.370819,30842.852095 32284.116344,30842.747225 32284.279398,30859.935667 32272.554600,30860.040528 32272.652167,30869.747070"/>
    <poly id="758869326" type="building" color="255,230,230" fill="1" layer="-1.00" shape="32325.698254,30507.580374 32317.271223,30517.168958 32347.600355,30543.530382 32356.027390,30533.941813 32325.698254,30507.580374"/>
    <poly id="775911133" type="building" color="255,230,230" fill="1" layer="-1.00" shape="30748.592975,31087.809729 30760.533635,31084.980932 30765.775993,31106.826226 30768.872484,31106.094066 30770.325812,31112.158516 30757.370269,31115.231351 30754.691996,31104.076309 30749.400007,31105.340923 30748.216565,31100.383124 30751.426977,31099.628763 30748.592975,31087.809729"/>
    <poly id="824750615" type="building" color="255,230,230" fill="1" layer="-1.00" shape="31519.291292,30453.792551 31522.807422,30463.508464 31535.172563,30459.086249 31531.646076,30449.359271 31519.291292,30453.792551"/>
    <poly id="824750617" type="building" color="255,230,230" fill="1" layer="-1.00" shape="32349.653791,30362.391602 32362.979894,30352.026114 32382.307420,30374.529759 32367.584587,30388.481861 32349.653791,30362.391602"/>
    <poly id="824750618" type="building" color="255,230,230" fill="1" layer="-1.00" shape="30149.487367,31039.413479 30149.618604,31033.525253 30152.259813,31033.590131 30152.724717,31013.656484 30149.586344,31013.591894 30149.778329,31005.290820 30165.294151,31005.658151 30164.495625,31039.758967 30149.487367,31039.413479"/>
    <poly id="824750622" type="building" color="255,230,230" fill="1" layer="-1.00" shape="31707.190567,30361.028880 31720.665157,30358.720248 31717.601036,30341.046228 31704.126432,30343.354862 31707.190567,30361.028880"/>
    <poly id="824750623" type="building" color="255,230,230" fill="1" layer="-1.00" shape="31494.765470,30310.995081 31503.750413,30320.210220 31519.583394,30311.359102 31509.768315,30299.111750 31494.765470,30310.995081"/>
    <poly id="824750625" type="building" color="255,230,230" fill="1" layer="-1.00" shape="31757.489133,30102.601558 31762.826722,30109.184420 31779.206988,30096.061074 31773.879760,30089.478201 31757.489133,30102.601558"/>
    <poly id="824750632" type="building" color="255,230,230" fill="1" layer="-1.00" shape="32330.928563,30110.349824 32334.920791,30120.154240 32346.592299,30115.456258 32342.589718,30105.651844 32330.928563,30110.349824"/>
    <poly id="824750633" type="building" color="255,230,230" fill="1" layer="-1.00" shape="31220.538123,29726.115552 31224.219556,29734.337138 31240.468144,29727.145731 31236.786717,29718.924141 31220.538123,29726.115552"/>
    <poly id="824750637" type="building" color="255,230,230" fill="1" layer="-1.00" shape="31196.553834,30099.714915 31203.488032,30108.687446 31218.346122,30097.357319 31211.411923,30088.373713 31196.553834,30099.714915"/>
    <poly id="824750640" type="building" color="255,230,230" fill="1" layer="-1.00" shape="32075.911211,30176.762059 32083.628786,30201.063696 32093.767866,30197.882543 32086.050304,30173.580901 32075.911211,30176.762059"/>
    <poly id="824750649" type="building" color="255,230,230" fill="1" layer="-1.00" shape="30736.148108,29761.035933 30753.653650,29760.926831 30753.505828,29736.621730 30736.000260,29736.730831 30736.148108,29761.035933"/>
    <poly id="824750665" type="building" color="255,230,230" fill="1" layer="-1.00" shape="30876.136161,30721.347763 30887.398193,30727.307372 30894.051582,30714.874522 30882.799902,30708.914902 30876.136161,30721.347763"/>
    <poly id="824750666" type="building" color="255,230,230" fill="1" layer="-1.00" shape="32511.366444,30085.279271 32523.179119,30095.467726 32520.549458,30098.479341 32526.362531,30103.490601 32550.091630,30076.297519 32537.750496,30065.655488 32522.748975,30082.839400 32517.464360,30078.292766 32511.366444,30085.279271"/>
    <poly id="824750673" type="building" color="255,230,230" fill="1" layer="-1.00" shape="32027.559151,30153.165402 32030.341563,30167.087576 32045.069411,30164.180967 32042.287012,30150.258790 32027.559151,30153.165402"/>
    <poly id="824750674" type="building" color="255,230,230" fill="1" layer="-1.00" shape="32052.557711,30140.447857 32071.075341,30134.695064 32067.040128,30121.858118 32048.522484,30127.610916 32052.557711,30140.447857"/>
    <poi id="11749713913" type="tourism" color="207,245,201" layer="3.00" x="32304.43" y="30530.39"/>
    <poi id="11749796339" type="shop" color="237,199,255" layer="4.00" x="32479.10" y="30231.08"/>
    <poi id="11749796340" type="shop" color="237,199,255" layer="4.00" x="32353.63" y="30401.26"/>
    <poi id="11749796341" type="shop" color="237,199,255" layer="4.00" x="32343.61" y="30463.43"/>
    <poi id="11749796342" type="shop" color="237,199,255" layer="4.00" x="32350.94" y="30461.43"/>
    <poi id="11749796343" type="amenity" color="237,199,199" layer="4.00" x="32361.77" y="30449.82"/>
    <poi id="11749796344" type="shop" color="237,199,255" layer="4.00" x="32323.08" y="30441.69"/>
    <poi id="11749796345" type="shop" color="237,199,255" layer="4.00" x="32371.29" y="30443.88"/>
    <poi id="11749796346" type="amenity" color="237,199,199" layer="4.00" x="32378.72" y="30436.71"/>
    <poi id="11749796347" type="shop" color="237,199,255" layer="4.00" x="32423.85" y="30343.70"/>
    <poi id="11749796348" type="amenity" color="237,199,199" layer="4.00" x="32481.98" y="30147.34"/>
    <poi id="11750548353" type="amenity" color="237,199,199" layer="4.00" x="32099.88" y="30833.56"/>
    <poi id="11750548393" type="tourism" color="207,245,201" layer="3.00" x="31961.12" y="30978.53"/>
    <poi id="11750548394" type="amenity" color="237,199,199" layer="4.00" x="32279.89" y="30884.79"/>
    <poi id="11752312630" type="amenity" color="237,199,199" layer="4.00" x="31705.74" y="30855.63"/>
    <poi id="11752312631" type="amenity" color="237,199,199" layer="4.00" x="31615.24" y="30625.00"/>
    <poi id="11752312648" type="amenity" color="237,199,199" layer="4.00" x="31563.13" y="30369.34"/>
    <poi id="11752312649" type="amenity" color="237,199,199" layer="4.00" x="31653.26" y="30215.56"/>
    <poi id="11752312650" type="tourism" color="207,245,201" layer="3.00" x="31646.17" y="30279.96"/>
    <poi id="11752312651" type="amenity" color="237,199,199" layer="4.00" x="31809.06" y="30167.78"/>
    <poi id="11752312653" type="tourism" color="207,245,201" layer="3.00" x="31399.97" y="30162.82"/>
    <poi id="11752312654" type="amenity" color="237,199,199" layer="4.00" x="31503.05" y="30208.50"/>
    <poi id="11752958232" type="shop" color="237,199,255" layer="4.00" x="31984.24" y="30717.55"/>
    <poi id="11752958233" type="amenity" color="237,199,199" layer="4.00" x="31933.12" y="30716.74"/>
    <poi id="11753114178" type="amenity" color="237,199,199" layer="4.00" x="31911.13" y="30807.03"/>
    <poi id="11753114183" type="amenity" color="237,199,199" layer="4.00" x="32088.22" y="30560.94"/>
    <poi id="11753114211" type="shop" color="237,199,255" layer="4.00" x="31952.93" y="30268.57"/>
    <poi id="11753114213" type="amenity" color="237,199,199" layer="4.00" x="32190.05" y="30536.16"/>
    <poi id="11753114219" type="shop" color="237,199,255" layer="4.00" x="32241.09" y="30571.80"/>
    <poi id="11753114233" type="shop" color="237,199,255" layer="4.00" x="32309.06" y="30468.43"/>
    <poi id="11753114234" type="shop" color="237,199,255" layer="4.00" x="32332.78" y="30430.12"/>
    <poi id="11753114235" type="amenity" color="237,199,199" layer="4.00" x="32335.77" y="30438.46"/>
    <poi id="11753114236" type="amenity" color="237,199,199" layer="4.00" x="32360.01" y="30395.13"/>
    <poi id="11753114237" type="shop" color="237,199,255" layer="4.00" x="32295.38" y="30476.99"/>
    <poi id="11753114238" type="shop" color="237,199,255" layer="4.00" x="32290.33" y="30486.04"/>
    <poi id="11753114239" type="amenity" color="237,199,199" layer="4.00" x="32262.20" y="30510.38"/>
    <poi id="11753114246" type="amenity" color="237,199,199" layer="4.00" x="32100.57" y="30583.65"/>
    <poi id="11753114247" type="amenity" color="237,199,199" layer="4.00" x="32437.83" y="30236.36"/>
    <poi id="11753114248" type="amenity" color="237,199,199" layer="4.00" x="32501.20" y="30203.88"/>
    <poi id="11753114254" type="amenity" color="237,199,199" layer="4.00" x="32580.86" y="30069.27"/>
    <poi id="11753114256" type="amenity" color="237,199,199" layer="4.00" x="32519.22" y="29988.40"/>
    <poi id="11753115576" type="shop" color="237,199,255" layer="4.00" x="32440.39" y="29826.04"/>
    <poi id="11753159607" type="shop" color="237,199,255" layer="4.00" x="31493.73" y="30220.35"/>
    <poi id="11753159620" type="shop" color="237,199,255" layer="4.00" x="31480.65" y="30164.04"/>
    <poi id="11753159621" type="amenity" color="237,199,199" layer="4.00" x="31353.21" y="30490.88"/>
    <poi id="11760918139" type="amenity" color="237,199,199" layer="4.00" x="32230.26" y="31074.67"/>
    <poi id="11775520374" type="building" color="255,230,230" layer="4.00" x="31161.13" y="30332.95"/>
    <poi id="1370641379" type="unknown" color="51,128,255" layer="4.00" x="31413.08" y="30663.61"/>
    <poi id="3430534363" type="amenity" color="237,199,199" layer="4.00" x="31174.04" y="30912.53"/>
    <poi id="3430585885" type="tourism" color="207,245,201" layer="3.00" x="31273.97" y="30934.91"/>
    <poi id="3430585887" type="amenity" color="237,199,199" layer="4.00" x="31174.78" y="30892.70"/>
    <poi id="3430585888" type="amenity" color="237,199,199" layer="4.00" x="31151.48" y="30972.26"/>
    <poi id="3430585889" type="shop" color="237,199,255" layer="4.00" x="31119.81" y="30976.41"/>
    <poi id="3430585890" type="amenity" color="237,199,199" layer="4.00" x="31074.77" y="30982.60"/>
    <poi id="3430594276" type="amenity" color="237,199,199" layer="4.00" x="30724.57" y="31002.39"/>
    <poi id="3430594277" type="tourism" color="207,245,201" layer="3.00" x="30604.75" y="31022.10"/>
    <poi id="3430594278" type="amenity" color="237,199,199" layer="4.00" x="30585.17" y="31032.69"/>
    <poi id="3430594279" type="shop" color="237,199,255" layer="4.00" x="30555.18" y="31045.22"/>
    <poi id="3430594280" type="shop" color="237,199,255" layer="4.00" x="30543.38" y="31091.00"/>
    <poi id="3430610525" type="amenity" color="237,199,199" layer="4.00" x="30501.60" y="31102.68"/>
    <poi id="4203688589" type="shop" color="237,199,255" layer="4.00" x="31895.78" y="29658.52"/>
    <poi id="4203688789" type="amenity" color="237,199,199" layer="4.00" x="31925.84" y="29655.05"/>
    <poi id="4253034407" type="tourism" color="207,245,201" layer="3.00" x="31363.98" y="30463.99"/>
    <poi id="4253065396" type="amenity" color="237,199,199" layer="4.00" x="31514.93" y="30147.22"/>
    <poi id="4254355794" type="shop" color="237,199,255" layer="4.00" x="31626.34" y="30512.09"/>
    <poi id="4271005493" type="shop" color="237,199,255" layer="4.00" x="31239.34" y="30941.24"/>
    <poi id="4271007492" type="amenity" color="237,199,199" layer="4.00" x="31629.47" y="30525.15"/>
    <poi id="4271025790" type="amenity" color="237,199,199" layer="4.00" x="31634.58" y="30610.38"/>
    <poi id="4271026789" type="amenity" color="237,199,199" layer="4.00" x="31256.04" y="30938.69"/>
    <poi id="4271026890" type="amenity" color="237,199,199" layer="4.00" x="31252.01" y="30449.50"/>