<?xml version="1.0" encoding="UTF-8"?>

<!-- generated on 2024-09-15 21:41:09.659548 by randomTrips.py v1_20_0+0002-343658e7c64
<configuration>
    <net-file value="map.net.xml"/>
    <route-file value="map.rou.xml"/>
    <length value="True"/>
    <end value="100.0"/>
</configuration>
-->

<!-- generated on 2024-09-15 21:41:09 by Eclipse SUMO duarouter Version 1.20.0
<configuration xmlns:xsi="http://www.w3.org/2001/XMLSchema-instance" xsi:noNamespaceSchemaLocation="http://sumo.dlr.de/xsd/duarouterConfiguration.xsd">

    <input>
        <net-file value="map.net.xml"/>
        <route-files value="trips.trips.xml"/>
    </input>

    <output>
        <output-file value="map.rou.xml"/>
        <alternatives-output value="NUL"/>
    </output>

    <time>
        <begin value="0"/>
        <end value="100.0"/>
    </time>

    <report>
        <no-warnings value="true"/>
        <ignore-errors value="true"/>
        <no-step-log value="true"/>
    </report>

</configuration>
-->

<routes xmlns:xsi="http://www.w3.org/2001/XMLSchema-instance" xsi:noNamespaceSchemaLocation="http://sumo.dlr.de/xsd/routes_file.xsd">
    <vehicle id="0" depart="0.00">
        <route edges="1265720148 -1265720146#1 -1265720146#0 -336299343#9 -336299343#8 -336299343#7 -336299343#6 -336299343#5 -336299343#4 -336299343#3 -336299343#2 -336299343#1 -336299343#0 -1264821839#5 -1264821839#4 -1264821839#3 -1264821839#2 -1264821839#1"/>
    </vehicle>
    <vehicle id="1" depart="1.00">
        <route edges="-406996131#5 -406996131#4 -406996131#3 -406996131#2 -406996131#1 -406996131#0 -406996130 -1156697386 -1156697385 1156697384#1 1156697389#0 335966497#0 335966497#1 335966497#2 335966497#3 335966497#4 335966497#5 335966497#6 335958254#0 336299347 -336299347"/>
    </vehicle>
    <vehicle id="2" depart="2.00">
        <route edges="336292481#0 -336292481#0 121213609#14 121213609#15 121213609#16 -1156697385 1156697384#1 1156697389#0 335966497#0 335966497#1 335966497#2 335966497#3 335966497#4 335966497#5 335966497#6 335958254#0 335958254#1 335958254#2"/>
    </vehicle>
    <vehicle id="3" depart="3.00">
        <route edges="562373932#8 562373932#9 -562373932#9 -562373932#8 -336290091#5 -336290091#4 -336290091#3 -336290091#2 -336290091#1 -336290091#0 -406996131#9 -406996131#8 -406996131#7 -406996131#6 335962139#0 1265206704 1265206706#0 1265206707 1265213763#0 -1265213763#0"/>
    </vehicle>
    <vehicle id="4" depart="4.00">
        <route edges="-562398256#3 -1265206692#4 -1265206692#3 -1265206692#2 -1265206692#1 -1265206692#0 -1265206690#1 -1265206690#0 -336290091#1 -336290091#0 -406996131#9 -406996131#8 -406996131#7 -406996131#6 -406996131#5 -406996131#4 -406996131#3 -406996131#2 -406996131#1 -406996131#0 -406996130 -1156697386 -1156697385 1156697384#1 1156697375#4 1156697375#5 1156697390#0 1264821839#0 1264821839#1 1264821839#2 1264821839#3 1264821839#4 1264821839#5 336299343#0 336299343#1 -1265421694 -1264821842#1"/>
    </vehicle>
    <vehicle id="5" depart="5.00">
        <route edges="-336299344#1 -336299344#0 -562392090#0 -1264821839#0 1156697390#1 1156697375#1 1156697375#2 1156697384#0 1156697385 1156697367#0 1156697367#1 1156697367#2 1156697367#3 1156697367#4 1156697367#5 1156697367#6 1156697367#7 1156697367#8 1156697367#9"/>
    </vehicle>
    <vehicle id="6" depart="6.00">
        <route edges="-1264821839#2 -1264821839#1 -1264821839#0 1156697390#1 1156697375#1 1156697375#2 1156697384#0 1156697385 1156697386 406996130 406996131#0 406996131#1 406996131#2 406996131#3 406996131#4 406996131#5 406996131#6 406996131#7 406996131#8 406996131#9 336290091#0 336290091#1 336290091#2 336290091#3 -336290091#3"/>
    </vehicle>
    <vehicle id="7" depart="7.00">
        <route edges="335956294#1 -335956294#1 -335956294#0 -397279144#0 1156697367#9 1156697367#10 1156714645#0 121213609#4 121213609#5"/>
    </vehicle>
    <vehicle id="8" depart="8.00">
        <route edges="-336299346#0 -336299344#0 -562392090#0 -1264821839#0 1156697390#1 1156697375#1 1156697375#2 1156697384#0 1156697385 1156697367#0 1156697367#1 1156697367#2 1156697367#3 1156697367#4 1156697367#5 1156697367#6 1156697367#7 1156697367#8 1156697367#9 1156697367#10 1156697367#11 1156697367#12 1156697363#2 1156697368#0 562373932#0 562373932#1 562373932#2 1265206640"/>
    </vehicle>
    <vehicle id="9" depart="9.00">
        <route edges="442181554#0 442181554#1 442181554#2 -495387667#1 -495387667#0 -1156697364 1156697363#0 1156697363#1 1156697363#2 1156697368#0 562373932#0 562373932#1 -1156697365#1"/>
    </vehicle>
    <vehicle id="10" depart="10.00">
        <route edges="406996131#4 406996131#5 335962139#0 335962139#1 335962139#2 335962144#0 335962144#1 335962144#2 335962144#3 335962144#4 335962144#5"/>
    </vehicle>
    <vehicle id="11" depart="11.00">
        <route edges="-562373932#8 -336290091#5 -336290091#4 -336290091#3 -336290091#2 -336290091#1 -336290091#0 -406996131#9 -406996131#8 -406996131#7 -406996131#6 335962139#0 335962139#1 335962139#2 335962139#3 -84734698#1 84734698#1 -335962139#3"/>
    </vehicle>
    <vehicle id="12" depart="12.00">
        <route edges="84734698#0 84734698#1 -335962139#3 -335962139#2 -335962139#1 -335962139#0 406996131#6 406996131#7 406996131#8 406996131#9 336290091#0 336290091#1 336290091#2 336290091#3 336290091#4 336290091#5 562373932#8 562373932#9 -562373932#9 -562373932#8"/>
    </vehicle>
    <vehicle id="13" depart="13.00">
        <route edges="-1265213766#1 -1265213766#0 -1265206699#2 -1265206699#1 -1265206699#0 -406996131#8 -406996131#7 -406996131#6 335962139#0 1265206704 1265206706#0 1265206707 1265213763#0 1265213764 1265213775 1265213776 -1265213776 -1265213775"/>
    </vehicle>
    <vehicle id="14" depart="14.00">
        <route edges="495387667#2 -495387667#2 -495387667#1 -495387667#0 -397279144#4 -397279144#3 -397279144#2 -397279144#1 -397279144#0 1156697369 121213609#7 121213609#8 121213609#9 121213609#10 121213609#11 121213609#12 121213609#13 121213609#14 121213609#15 121213609#16 1156697386 406996130 406996131#0 406996131#1 406996131#2 406996131#3 406996131#4 406996131#5 406996131#6 406996131#7 406996131#8 406996131#9 336290091#0 336290091#1 1265206690#0 1265206690#1 1265206692#0 1265206692#1 1265206692#2 1265206694"/>
    </vehicle>
    <vehicle id="15" depart="15.00">
        <route edges="406996131#5 406996131#6 406996131#7 406996131#8 406996131#9 336290091#0 336290091#1 336290091#2 336290091#3"/>
    </vehicle>
    <vehicle id="16" depart="16.00">
        <route edges="121213609#0 121213609#1 121213609#2 121213609#3 1156714645#1 1156714645#2 -335962144#6 -335962144#5 -335962144#4 -335962144#3 -335962144#2 -335962144#1 -335962144#0 335962139#3 -84734698#1 -84734698#0 84734698#0"/>
    </vehicle>
    <vehicle id="17" depart="17.00">
        <route edges="-562373932#9 -562373932#8 -562373932#7 -562373932#6 -562373932#5 -562373932#4 -562373932#3 -562373932#2 -562373932#1 -562373932#0 1156697368#1 121213609#3 121213609#4 121213609#5 121213609#6 121213609#7 121213609#8 121213609#9 121213609#10 121213609#11 121213609#12 121213609#13 121213609#14 121213609#15 121213609#16 -1156697385 1156697384#1 1156697389#0 335966497#0 335966497#1 335966497#2 335966497#3 335966497#4 495366000#0 1264821838"/>
    </vehicle>
    <vehicle id="18" depart="18.00">
        <route edges="495169371 -495169371 -335966497#8 -335966497#7 -335966497#6 -335966497#5 -335966497#4 -335966497#3 -335966497#2 -335966497#1 -335966497#0 1156697389#1 1156697375#5 1156697375#6 1156697375#0 1156697375#1 1156697375#2 1156697384#0 1156697385 1156697386 406996130 406996131#0 406996131#1 406996131#2 406996131#3 406996131#4 406996131#5 335962139#0 1265206704 1265206706#0 1265206707 1265213763#0 1265213763#1"/>
    </vehicle>
    <vehicle id="19" depart="19.00">
        <route edges="562373932#7 -562373932#7 -562373932#6 -562373932#5 -562373932#4 -562373932#3 -562373932#2 -562373932#1 -562373932#0 1156697368#1 121213609#3 121213609#4 121213609#5 121213609#6 121213609#7 1156871037 1156697367#8 397279144#0 335956294#0 335956294#1 335956294#2 336299362#0 336299362#1 1265189459#0 1265189460#0"/>
    </vehicle>
    <vehicle id="20" depart="20.00">
        <route edges="335966497#3 -335966497#3 -335966497#2 -335966497#1 -335966497#0 1156697389#1 1156697375#5 1156697375#6 1156697375#0 1156697375#1 1156697375#2 1156697384#0 1156697385 1156697367#0 1156697367#1 1156697367#2 1156697367#3 1156697367#4 1156697367#5 1156697367#6 1156697367#7 1156697367#8 1156697367#9 1156697367#10 1156714645#0 1156714645#1 1265067100#0 1265067100#1 -1265067100#1"/>
    </vehicle>
    <vehicle id="21" depart="21.00">
        <route edges="-336299350#3 -1265047795 336299358 -1265047792#2 -1265047792#1 -1265047792#0 -1265047791#2 -1265047791#1 -1265047791#0 336299343#6 336299343#7 336299343#8 336299343#9 336299343#10 336299343#11 336299343#12 335966497#6 335966497#7 335966497#8 335966497#9 -335956294#5 -1148135921#2 -1148135921#1 -1148135921#0 -442181554#5 -442181554#4"/>
    </vehicle>
    <vehicle id="22" depart="22.00">
        <route edges="-1265206701 -1265206700#0 -1265206699#0 -406996131#8 -406996131#7 -406996131#6 -406996131#5 -406996131#4 -406996131#3 -406996131#2 -406996131#1 -406996131#0 -406996130 -1156697386 -1156697385 1156697384#1 1156697389#0 335966497#0 335966497#1 335966497#2 335966497#3 335966497#4 335966497#5 -336299343#12 -336299343#11 -336299343#10 -336299343#9 -336299343#8 -336299343#7 -336299343#6 1265047791#0 1265047791#1 1265047791#2 1265047792#0 1265047792#1 1265047792#2 -336299358"/>
    </vehicle>
    <vehicle id="24" depart="24.00">
        <route edges="1265421745 -442181554#3 -495387667#1 -495387667#0 -1156697364 1156697363#0 1156697363#1 1156697363#2 1156697368#0 562373932#0 562373932#1 562373932#2 562373932#3 562373932#4 562373932#5 562373932#6 562373932#7 562373932#8 562373932#9 -562373932#9 -562373932#8"/>
    </vehicle>
    <vehicle id="25" depart="25.00">
        <route edges="-562373932#9 -562373932#8 -562373932#7 -562373932#6 -562373932#5 -562373932#4 -562373932#3 -562373932#2 -1156697365#1 -1156697365#0 -335962144#5 -1267913908#1 -1267913908#0 -336292483#1"/>
    </vehicle>
    <vehicle id="26" depart="26.00">
        <route edges="-406996131#10 -406996131#9 -406996131#8 -406996131#7 -406996131#6 -406996131#5 -406996131#4 -406996131#3 -406996131#2 -406996131#1 -406996131#0 -406996130 -1156697386 -1156697385 1156697384#1 1156697375#4 1156697375#5 1156697375#6 1156697375#0 1156697375#1 -1156697374#1 562392779"/>
    </vehicle>
    <vehicle id="27" depart="27.00">
        <route edges="1267913908#1 -335962144#4 -335962144#3 -335962144#2 -335962144#1 -335962144#0 -335962139#2 -335962139#1 1265206704"/>
    </vehicle>
    <vehicle id="28" depart="28.00">
        <route edges="-335966497#10 -335966497#9 -335966497#8 -335966497#7 -335966497#6 -335966497#5 -335966497#4 -335966497#3 -335966497#2 -335966497#1 -335966497#0 1156697389#1 1156697375#5 1156697375#6 1156697375#0 1156697375#1 1156697375#2 1156697384#0 1156697385 1156697386 406996130 406996131#0 406996131#1 406996131#2 406996131#3 406996131#4 406996131#5 406996131#6 406996131#7 406996131#8 406996131#9 336290091#0 336290091#1 336290091#2 336290091#3"/>
    </vehicle>
    <vehicle id="29" depart="29.00">
        <route edges="-335962144#1 335962144#1 335962144#2 335962144#3 335962144#4 335962144#5 1156697365#0 1156697365#1 562373932#2 562373932#3 562373932#4 562373932#5 562373932#6 562373932#7 562373932#8 562373932#9 -562373932#9"/>
    </vehicle>
    <vehicle id="30" depart="30.00">
        <route edges="84734698#0 335962142 -406996131#1 -406996131#0 -406996130 -1156697386 -1156697385 1156697384#1 1156697389#0 335966497#0 335966497#1 335966497#2 335966497#3 335966497#4 335966497#5 -336299343#12 -336299343#11 -336299343#10 -336299343#9 -336299343#8 1265720149"/>
    </vehicle>
    <vehicle id="31" depart="31.00">
        <route edges="1264821839#5 336299343#0 -336299343#0 -1264821839#5 -1264821839#4 -1264821839#3 -1264821839#2 -1264821839#1 -1264821839#0 1156697390#1 1156697375#1 1156697375#2 1156697384#0 1156697385 1156697386 406996130 406996131#0 406996131#1 406996131#2 406996131#3 406996131#4 406996131#5 335962139#0 335962139#1"/>
    </vehicle>
    <vehicle id="32" depart="32.00">
        <route edges="495387667#2 -495387667#2 -495387667#1 -495387667#0 -397279144#4 -397279144#3 -397279144#2 -397279144#1 397279144#1"/>
    </vehicle>
    <vehicle id="33" depart="33.00">
        <route edges="-336299350#3 -1265047795 336299358 -1265047792#2 -1265047792#1 -1265047792#0 -1265047791#2 -1265047791#1"/>
    </vehicle>
    <vehicle id="34" depart="34.00">
        <route edges="-495387667#2 -495387667#1 -495387667#0 -397279144#4 -397279144#3 -397279144#2 -397279144#1 -397279144#0 1156697369 121213609#7 121213609#8 121213609#9 121213609#10 121213609#11 121213609#12 121213609#13 121213609#14 121213609#15 121213609#16 1156697386 406996130 406996131#0 406996131#1 406996131#2 406996131#3 406996131#4 406996131#5 406996131#6 406996131#7 406996131#8 406996131#9 406996131#10 -406996131#10"/>
    </vehicle>
    <vehicle id="35" depart="35.00">
        <route edges="-336292484 121213609#6 121213609#7 1156871037 1156697367#8 1156697367#9 1156697367#10 1156697367#11 1156697367#12 1156697363#2 1156697368#0 562373932#0 562373932#1 562373932#2 562373932#3 562373932#4 562373932#5 562373932#6 562373932#7 -336290091#5 -336290091#4 562398256#0"/>
    </vehicle>
    <vehicle id="36" depart="36.00">
        <route edges="562373932#8 562373932#9 -562373932#9 -562373932#8 -562373932#7 -562373932#6 -562373932#5 -562373932#4 -562373932#3 -562373932#2 -562373932#1 -562373932#0 1156697368#1 335958252#0 335958252#1 335958252#2 1156697364 495387667#0 495387667#1 495387667#2 -495387667#2"/>
    </vehicle>
    <vehicle id="37" depart="37.00">
        <route edges="335956294#4 335956294#5 -335966497#9 -335966497#8 -335966497#7 -335966497#6 -336299343#12 -336299343#11 -336299343#10 -336299343#9 -336299343#8 -336299343#7 -336299343#6 -336299343#5 -336299343#4 -336299343#3 -336299343#2 -336299343#1 -495370419#1 -562392090#2"/>
    </vehicle>
    <vehicle id="38" depart="38.00">
        <route edges="562374426#4 562374426#5 1148135922 -335962144#0 335962139#3 -84734698#1 -84734698#0"/>
    </vehicle>
    <vehicle id="39" depart="39.00">
        <route edges="-406996131#10 -406996131#9 -406996131#8 -406996131#7 -406996131#6 -406996131#5 -406996131#4 -406996131#3 -406996131#2 -406996131#1 -406996131#0 -406996130 -1156697386 1156697367#0 1156697367#1 1156697367#2 1156697367#3 1156697367#4 1156697367#5 1156697367#6 1156697367#7 1156697367#8 397279144#0 397279144#1 397279144#2 397279144#3 397279144#4 -397279144#4"/>
    </vehicle>
    <vehicle id="40" depart="40.00">
        <route edges="1265047791#1 -1265047791#1 -1265047791#0 336299343#6 336299343#7 336299343#8 336299343#9 336299343#10 336299343#11 336299343#12 -335966497#5 -335966497#4 -335966497#3 -335966497#2 -335966497#1 -335966497#0 1156697389#1 1156697375#5 1156697375#6 1156697375#0 1156697375#1 1156697375#2 1156697384#0 1156697385 1156697386 406996130 406996131#0 406996131#1 406996131#2 406996131#3 406996131#4 406996131#5 406996131#6 406996131#7 406996131#8 406996131#9 406996131#10 -406996131#10"/>
    </vehicle>
    <vehicle id="41" depart="41.00">
        <route edges="1265197090 1265197091 -336292482#1 -336292482#0 1156871037 1156697367#8 1156697367#9 1156697367#10 1156697367#11 1156697367#12 1156697363#2 1156697368#0 562373932#0 562373932#1 562373932#2 562373932#3 562373932#4 562373932#5 562373932#6 562373932#7 562373932#8"/>
    </vehicle>
    <vehicle id="42" depart="42.00">
        <route edges="-562392090#2 -1264821839#1 -1264821839#0 1156697390#1 1156697375#1 1156697375#2 1156697375#3 1156697389#0 335966497#0 335966497#1 335966497#2 335966497#3 -336299344#3"/>
    </vehicle>
    <vehicle id="43" depart="43.00">
        <route edges="84734698#0 84734698#1 -335962139#3 335962144#0 335962144#1 335962144#2 335962144#3 335962144#4 335962144#5 1156697365#0 1156697365#1 562373932#2 1265206640 -1156697382#1 1156697382#1"/>
    </vehicle>
    <vehicle id="44" depart="44.00">
        <route edges="-1265213763#1 -1265213763#0 -1265206707 -1265206706#0 -1265206704 -335962139#0 -406996131#5 -406996131#4 -406996131#3 -406996131#2 -406996131#1 -406996131#0 -406996130 -1156697386 -1156697385 1156697384#1 1156697389#0 335966497#0 335966497#1 335966497#2 335966497#3 335966497#4 1265189458 -1265189458"/>
    </vehicle>
    <vehicle id="45" depart="45.00">
        <route edges="-1265421746#1 -1265421746#0 -495387667#0 -397279144#4 -397279144#3 -397279144#2 -397279144#1 -397279144#0 1156697367#9 1156697367#10 1156714645#0 1156714645#1 1156714645#2 -335962144#6 -335962144#5 -335962144#4 -335962144#3 -335962144#2 -335962144#1 -335962144#0 -335962139#2 -335962139#1 1265206704 1265206706#0 1265206707 1265213763#0 1265213764 1265213775 1265213776"/>
    </vehicle>
    <vehicle id="46" depart="46.00">
        <route edges="406996131#10 -406996131#10 336290091#0 336290091#1 336290091#2 -562398256#3"/>
    </vehicle>
    <vehicle id="47" depart="47.00">
        <route edges="-1265206661 -562373932#6 562374426#0 562374426#1 562374426#2 562374426#3 -562374426#3"/>
    </vehicle>
    <vehicle id="48" depart="48.00">
        <route edges="84734698#0 84734698#1 -335962139#3 335962144#0 335962144#1 335962144#2 335962144#3 335962144#4 335962144#5 335962144#6 1156714644#0 1156714644#1 1156697367#10 1156697367#11 1156697367#12 1156697367#13 121213609#0"/>
    </vehicle>
    <vehicle id="49" depart="49.00">
        <route edges="84734698#0 84734698#1 -335962139#3 335962144#0 335962144#1 335962144#2 335962144#3 335962144#4 335962144#5 1156697365#0 1156697365#1 562373932#2 562373932#3 562373932#4 562373932#5 562373932#6 562373932#7"/>
    </vehicle>
    <vehicle id="50" depart="50.00">
        <route edges="-1156697382#1 1156697382#1 -1265206640 -562373932#2 -1156697365#1 -1156697365#0 -335962144#5 -335962144#4 -335962144#3 -335962144#2 -335962144#1 -335962144#0 -335962139#2 -335962139#1 -335962139#0 406996131#6 406996131#7 406996131#8 406996131#9 336290091#0 336290091#1 336290091#2"/>
    </vehicle>
    <vehicle id="51" depart="51.00">
        <route edges="335959895 -335959895 406996131#5 335962139#0 335962139#1 335962139#2 335962144#0 335962144#1 335962144#2 335962144#3 335962144#4 335962144#5 335962144#6 1156714644#0 1156714644#1 1156697367#10 1156697367#11 1156697367#12 1156697367#13 121213609#0"/>
    </vehicle>
    <vehicle id="52" depart="52.00">
        <route edges="-406996131#10 -406996131#9 -406996131#8 -406996131#7 -406996131#6 -406996131#5 -406996131#4 -406996131#3 -406996131#2 -406996131#1 -406996131#0 -406996130 -1156697386 -1156697385 1156697384#1 1156697389#0 335966497#0 335966497#1 335966497#2 335966497#3 335966497#4 335966497#5 -336299343#12 -336299343#11 -336299343#10 -336299343#9 -336299343#8 -336299343#7 -336299343#6 1265047791#0 1265047791#1 1265189466 1265743117"/>
    </vehicle>
    <vehicle id="53" depart="53.00">
        <route edges="-1265720148 -495366000#2 -495366000#1 -495366000#0 -335966497#4 -335966497#3 -335966497#2 -335966497#1 -335966497#0 1156697389#1 1156697375#5 1156697375#6 1156697375#0 1156697375#1 1156697375#2 1156697384#0 1156697385 1156697386 406996130 406996131#0 406996131#1 -335962142 -84734698#0"/>
    </vehicle>
    <vehicle id="54" depart="54.00">
        <route edges="-84734698#0 84734698#0 84734698#1 -335962139#3 -335962139#2 -335962139#1 -335962139#0 406996131#6 406996131#7 406996131#8 406996131#9 336290091#0 336290091#1 1265206690#0 1265206690#1 1265206692#0 1265206692#1 1265206692#2 1265206692#3 1265206692#4 562398256#3"/>
    </vehicle>
    <vehicle id="55" depart="55.00">
        <route edges="562373932#8 562373932#9 -562373932#9 -562373932#8 -336290091#5 -336290091#4 -336290091#3 -336290091#2 -336290091#1 -336290091#0 406996131#10 -406996131#10"/>
    </vehicle>
    <vehicle id="56" depart="56.00">
        <route edges="1156697367#13 121213609#0 121213609#1 121213609#2 121213609#3 121213609#4 121213609#5 121213609#6 121213609#7 1156871037 1156697367#8 397279144#0 335956294#0 335956294#1 335956294#2 335956294#3 335956294#4 335956294#5 -335966497#9"/>
    </vehicle>
    <vehicle id="57" depart="57.00">
        <route edges="562374426#0 -562374426#0 562373932#6 562373932#7 562373932#8"/>
    </vehicle>
    <vehicle id="58" depart="58.00">
        <route edges="-495169883 -335966497#7 -335966497#6 -336299343#12 -336299343#11 -336299343#10 1265720146#0 -1265720147 1265720147"/>
    </vehicle>
    <vehicle id="59" depart="59.00">
        <route edges="1265206704 -1265206704 335962139#1 -335962139#1"/>
    </vehicle>
    <vehicle id="60" depart="60.00">
        <route edges="336299350#3 -336299350#3 -1265047795 336299358 -1265047792#2 -1265047792#1 -1265047792#0 -1265047791#2 -1265047791#1 -1265047791#0 336299343#6 336299343#7 336299343#8 336299343#9 336299343#10 336299343#11 336299343#12 -335966497#5 -335966497#4 -335966497#3 -335966497#2 -335966497#1 -335966497#0 1156697389#1 1156697375#5 1156697375#6 1156697375#0 1156697375#1 1156697375#2 1156697384#0 1156697385 1156697367#0 1156697367#1 1156697367#2 1156697367#3 1156697367#4 1156697367#5 1156697367#6 1156697367#7 1156697367#8 1156697367#9 1156697367#10 1156697367#11 1156697367#12 1156697367#13 121213609#0"/>
    </vehicle>
    <vehicle id="61" depart="61.00">
        <route edges="397279144#4 -1156697364 1156697363#0 1156697363#1 1156697367#13 121213609#0"/>
    </vehicle>
    <vehicle id="62" depart="62.00">
        <route edges="-1148135921#1 -1148135921#0 -442181554#5 1265421745 -442181554#3 -495387667#1 -495387667#0 -1156697364 1156697363#0 1156697363#1 1156697363#2 1156697368#0 562373932#0 562373932#1 562373932#2 562373932#3 562373932#4 562373932#5 -562373932#5 -562373932#4 -562373932#3"/>
    </vehicle>
    <vehicle id="63" depart="63.00">
        <route edges="-1156697385 1156697384#1 1156697375#4 1156697375#5 1156697390#0 1264821839#0 1264821839#1 562392090#2"/>
    </vehicle>
    <vehicle id="64" depart="64.00">
        <route edges="562373932#8 562373932#9 -562373932#9 -562373932#8 -562373932#7 -562373932#6 -562373932#5 -562373932#4 -562373932#3 -562373932#2 -562373932#1 -562373932#0 1156697368#1 121213609#3 121213609#4 121213609#5 121213609#6 121213609#7 1156871037 1156697367#8 397279144#0 335956294#0 335956294#1 335956294#2 335956294#3 -495169883 495169883"/>
    </vehicle>
    <vehicle id="65" depart="65.00">
        <route edges="-495370419#1 495370419#1 -336299343#0 -1264821839#5 -1264821839#4 -1264821839#3 -1264821839#2 -1264821839#1 -1264821839#0 1156697390#1 1156697375#1 1156697375#2 1156697384#0 1156697385 1156697367#0 1156697367#1 1156697367#2 1156697367#3 1156697367#4 1156697367#5 1156697367#6 1156697367#7 1156697367#8 1156697367#9 1156697367#10 1156697367#11 1156697367#12 1156697363#2 1156697368#0 562373932#0 -1265206639"/>
    </vehicle>
    <vehicle id="66" depart="66.00">
        <route edges="562373932#8 562373932#9 -562373932#9 -562373932#8 -336290091#5 -336290091#4 562398256#0"/>
    </vehicle>
    <vehicle id="67" depart="67.00">
        <route edges="-1265213763#0 -1265206707 -1265206706#0 -1265206704 335962139#1 335962139#2 335962144#0 335962144#1 335962144#2 335962144#3 335962144#4 335962144#5 335962144#6 1156714644#0 1156714644#1 1156697367#10 1156697367#11 1156697367#12 1156697367#13"/>
    </vehicle>
    <vehicle id="68" depart="68.00">
        <route edges="-1265206689 562398256#2 -1265206692#4 -1265206692#3 -1265206692#2 -1265206692#1 -1265206692#0 -1265206690#1 -1265206690#0 -336290091#1 -336290091#0 -406996131#9 -406996131#8 -406996131#7 -406996131#6 -406996131#5 -406996131#4 -406996131#3 -406996131#2 -406996131#1 -406996131#0 -406996130 -1156697386 -1156697385 1156697384#1 1156697389#0 335966497#0 335966497#1 335966497#2 335966497#3 335966497#4 335966497#5 -336299343#12 -336299343#11 -336299343#10 -336299343#9 -336299343#8 -336299343#7 -336299343#6 1265047791#0 1265047791#1 1265047791#2 1265047792#0 1265047792#1 1265047792#2 -336299358 1265047795 336299350#3"/>
    </vehicle>
    <vehicle id="69" depart="69.00">
        <route edges="336299362#0 -336299362#0 335956294#3 335956294#4 335956294#5 -335956294#5"/>
    </vehicle>
    <vehicle id="70" depart="70.00">
        <route edges="1156697363#1 1156697363#2 121213609#2 121213609#3 121213609#4 121213609#5 121213609#6 121213609#7 121213609#8 121213609#9 121213609#10 121213609#11 121213609#12 121213609#13 121213609#14 121213609#15 121213609#16 -1156697385 1156697384#1 1156697389#0 335966497#0 335966497#1 335966497#2 335966497#3 335966497#4 495366000#0 1264821838"/>
    </vehicle>
    <vehicle id="71" depart="71.00">
        <route edges="-406996131#10 336290091#0 336290091#1 336290091#2 336290091#3 336290091#4 336290091#5 562373932#8"/>
    </vehicle>
    <vehicle id="72" depart="72.00">
        <route edges="-562398256#3 -1265206692#4 -1265206692#3 -1265206692#2 -1265206692#1 -1265206692#0 -1265206690#1 -1265206690#0 -336290091#1 -336290091#0 -406996131#9 -406996131#8 -406996131#7 -406996131#6 335962139#0 335962139#1 335962139#2 335962144#0 335962144#1 335962144#2 335962144#3 335962144#4 -1267913908#1 -1267913908#0 -336292483#1 -336292484"/>
    </vehicle>
    <vehicle id="73" depart="73.00">
        <route edges="121213609#0 121213609#1 121213609#2 121213609#3 1156714645#1 1156714645#2 -335962144#6 -335962144#5 -335962144#4 -335962144#3 -335962144#2 -335962144#1 -335962144#0 -335962139#2 -335962139#1 -335962139#0 406996131#6 406996131#7 406996131#8 406996131#9 336290091#0 336290091#1 336290091#2 336290091#3"/>
    </vehicle>
    <vehicle id="74" depart="74.00">
        <route edges="-336290091#4 336290091#4 336290091#5 -562373932#7 -562373932#6 -562373932#5 -562373932#4 -562373932#3 -562373932#2 -562373932#1 -562373932#0 1156697368#1 335958252#0 335958252#1 335958252#2 1156697364 495387667#0 495387667#1 495387667#2 -495387667#2"/>
    </vehicle>
    <vehicle id="75" depart="75.00">
        <route edges="84734698#0 84734698#1 -335962139#3 335962144#0 335962144#1 335962144#2 335962144#3 335962144#4 335962144#5 335962144#6 1156714644#0 121213609#5 121213609#6 121213609#7 1156871037 1156697367#8 397279144#0 335956294#0 335956294#1"/>
    </vehicle>
    <vehicle id="76" depart="76.00">
        <route edges="-84734698#0 84734698#0 335962142 -406996131#1 -406996131#0 -406996130 -1156697386 -1156697385 1156697385"/>
    </vehicle>
    <vehicle id="77" depart="77.00">
        <route edges="-335956294#0 335956294#0 335956294#1 335956294#2 335956294#3 -495169883 -335966497#7 335958254#0 336299347 -336299347"/>
    </vehicle>
    <vehicle id="78" depart="78.00">
        <route edges="-562373932#8 -562373932#7 -562373932#6 -562373932#5 -562373932#4 -562373932#3 1265206640 1156697382#2 1265206639"/>
    </vehicle>
    <vehicle id="79" depart="79.00">
        <route edges="-336299350#3 -1265047795 336299358 -1265047792#2 -1265047792#1 -1265047792#0 -1265047791#2 -1265047791#1 -1265047791#0 -336299343#5 -336299343#4 -336299343#3 -336299343#2 -336299343#1 -336299343#0 -1264821839#5 -1264821839#4 -1264821839#3 -562392263#1 -336299346#0"/>
    </vehicle>
    <vehicle id="81" depart="81.00">
        <route edges="-336299350#3 -1265047795 336299358 -1265047792#2 -1265047792#1 -1265047792#0 -1265047791#2 -1265047791#1 -1265047791#0 336299343#6 336299343#7 336299343#8 336299343#9 336299343#10 336299343#11 336299343#12 -335966497#5 -335966497#4 -335966497#3 -335966497#2 -335966497#1 -335966497#0 1156697389#1 1156697375#5 1156697375#6 1156697375#0 1156697375#1 1156697375#2 1156697384#0 1156697385 1156697367#0 1156697367#1 1156697367#2 1156697367#3 1156697367#4 1156697367#5 1156697367#6 1156697367#7 1156697367#8 1156697367#9 1156697367#10 1156697367#11 1156697367#12 1156697363#2 1156697368#0 562373932#0 562373932#1 562373932#2 562373932#3 562373932#4 562373932#5 562373932#6 562373932#7 562373932#8 562373932#9"/>
    </vehicle>
    <vehicle id="82" depart="82.00">
        <route edges="562373932#7 -336290091#5 -336290091#4 -336290091#3 -336290091#2 1265206690#0 -1265206690#0"/>
    </vehicle>
    <vehicle id="83" depart="83.00">
        <route edges="-336299364 -335966497#1 -335966497#0 1156697389#1 1156697375#5 1156697375#6 1156697375#0 1156697375#1 1156697375#2 1156697384#0 1156697385 1156697367#0 1156697367#1 1156697367#2 1156697367#3 1156697367#4 1156697367#5 1156697367#6 1156697367#7 1156697367#8 397279144#0 397279144#1 397279144#2 1265067099 335958253#3"/>
    </vehicle>
    <vehicle id="84" depart="84.00">
        <route edges="-336299343#1 -336299343#0 -1264821839#5 -1264821839#4 -1264821839#3 -1264821839#2 -1264821839#1 -1264821839#0 1156697390#1 1156697375#1 1156697375#2 1156697384#0 1156697385 1156697367#0 1156697367#1 1156697367#2 1156697367#3 1156697367#4 1156697367#5 1156697367#6 1156697367#7 1156697367#8 397279144#0 397279144#1 397279144#2 1265067099 -335958253#2 -335958253#1 -335958253#0"/>
    </vehicle>
    <vehicle id="85" depart="85.00">
        <route edges="562392779 -336292481#0 121213609#14 121213609#15 121213609#16 -1265067094 1265189462 1265067095#0"/>
    </vehicle>
    <vehicle id="86" depart="86.00">
        <route edges="1156697363#0 335958253#1 335958253#2 -1265067099 -397279144#2 -397279144#1 -397279144#0 1156697369 121213609#7 121213609#8 121213609#9 121213609#10 121213609#11 121213609#12 121213609#13 121213609#14 121213609#15 121213609#16 1156697386 406996130"/>
    </vehicle>
    <vehicle id="87" depart="87.00">
        <route edges="406996131#6 406996131#7 406996131#8 406996131#9 336290091#0 336290091#1 336290091#2 -336290091#2"/>
    </vehicle>
    <vehicle id="88" depart="88.00">