<?xml version="1.0" encoding="UTF-8"?>

<!-- generated on 2024-09-15 20:18:16 by Eclipse SUMO netconvert Version 1.20.0
<configuration xmlns:xsi="http://www.w3.org/2001/XMLSchema-instance" xsi:noNamespaceSchemaLocation="http://sumo.dlr.de/xsd/netconvertConfiguration.xsd">

    <input>
        <osm-files value="map.osm"/>
    </input>

    <output>
        <output-file value="map.net.xml"/>
        <output.street-names value="true"/>
    </output>

    <projection>
        <proj.utm value="true"/>
    </projection>

    <processing>
        <lefthand value="true"/>
    </processing>

</configuration>
-->

<net version="1.20" junctionCornerDetail="5" lefthand="true" limitTurnSpeed="5.50" xmlns:xsi="http://www.w3.org/2001/XMLSchema-instance" xsi:noNamespaceSchemaLocation="http://sumo.dlr.de/xsd/net_file.xsd">

    <location netOffset="-460473.81,-2347013.31" convBoundary="0.00,-0.00,33259.36,35273.52" origBoundary="86.619110,21.224245,86.939501,21.543366" projParameter="+proj=utm +zone=45 +ellps=WGS84 +datum=WGS84 +units=m +no_defs"/>

    <type id="highway.footway" priority="1" numLanes="1" speed="2.78" allow="pedestrian" oneway="1" width="2.00"/>
    <type id="highway.path" priority="1" numLanes="1" speed="5.56" allow="pedestrian bicycle" oneway="0" width="2.00"/>
    <type id="highway.pedestrian" priority="1" numLanes="1" speed="2.78" allow="pedestrian" oneway="1" width="2.00"/>
    <type id="highway.primary" priority="12" numLanes="2" speed="27.78" disallow="tram rail_urban rail rail_electric rail_fast ship container cable_car subway aircraft wheelchair scooter drone" oneway="0"/>
    <type id="highway.residential" priority="3" numLanes="1" speed="13.89" disallow="tram rail_urban rail rail_electric rail_fast ship container cable_car subway aircraft wheelchair scooter drone" oneway="0"/>
    <type id="highway.secondary" priority="11" numLanes="1" speed="27.78" disallow="tram rail_urban rail rail_electric rail_fast ship container cable_car subway aircraft wheelchair scooter drone" oneway="0"/>
    <type id="highway.secondary_link" priority="6" numLanes="1" speed="22.22" disallow="tram rail_urban rail rail_electric rail_fast ship container cable_car subway aircraft wheelchair scooter drone" oneway="0"/>
    <type id="highway.service" priority="1" numLanes="1" speed="5.56" allow="pedestrian delivery bicycle" oneway="0"/>
    <type id="highway.steps" priority="1" numLanes="1" speed="1.39" allow="pedestrian" oneway="1" width="2.00"/>
    <type id="highway.tertiary" priority="10" numLanes="1" speed="22.22" disallow="tram rail_urban rail rail_electric rail_fast ship container cable_car subway aircraft wheelchair scooter drone" oneway="0"/>
    <type id="highway.unclassified" priority="4" numLanes="1" speed="13.89" disallow="tram rail_urban rail rail_electric rail_fast ship container cable_car subway aircraft wheelchair scooter drone" oneway="0"/>
    <type id="railway.rail" priority="20" numLanes="1" speed="44.44" allow="rail" oneway="1"/>

    <edge id=":10682532915_0" function="internal">
        <lane id=":10682532915_0_0" index="0" disallow="tram rail_urban rail rail_electric rail_fast ship container cable_car subway aircraft wheelchair scooter drone" speed="8.08" length="9.56" shape="32510.94,30023.58 32510.46,30025.83 32509.35,30027.75 32507.60,30029.33 32505.22,30030.57"/>
    </edge>
    <edge id=":10682532915_1" function="internal">
        <lane id=":10682532915_1_0" index="0" disallow="tram rail_urban rail rail_electric rail_fast ship container cable_car subway aircraft wheelchair scooter drone" speed="7.77" length="14.76" shape="32510.94,30023.58 32511.26,30027.70 32512.84,30030.54 32515.69,30032.10 32519.81,30032.38"/>
    </edge>
    <edge id=":10682532915_2" function="internal">
        <lane id=":10682532915_2_0" index="0" disallow="tram rail_urban rail rail_electric rail_fast ship container cable_car subway aircraft wheelchair scooter drone" speed="3.65" length="4.67" shape="32510.94,30023.58 32511.66,30024.83 32512.43,30025.29 32513.26,30024.94 32514.13,30023.80"/>
    </edge>
    <edge id=":10682532915_3" function="internal">
        <lane id=":10682532915_3_0" index="0" disallow="tram rail_urban rail rail_electric rail_fast ship container cable_car subway aircraft wheelchair scooter drone" speed="6.22" length="9.05" shape="32519.57,30029.19 32517.05,30029.02 32515.30,30028.06 32514.33,30026.32 32514.13,30023.80"/>
    </edge>
    <edge id=":10682532915_4" function="internal">
        <lane id=":10682532915_4_0" index="0" disallow="tram rail_urban rail rail_electric rail_fast ship container cable_car subway aircraft wheelchair scooter drone" speed="22.22" length="14.49" shape="32519.57,30029.19 32515.88,30029.30 32512.27,30029.33 32508.72,30029.63 32505.22,30030.57"/>
    </edge>
    <edge id=":10682532915_5" function="internal">
        <lane id=":10682532915_5_0" index="0" disallow="tram rail_urban rail rail_electric rail_fast ship container cable_car subway aircraft wheelchair scooter drone" speed="3.65" length="1.44" shape="32519.57,30029.19 32518.44,30030.08"/>
    </edge>
    <edge id=":10682532915_9" function="internal">
        <lane id=":10682532915_9_0" index="0" disallow="tram rail_urban rail rail_electric rail_fast ship container cable_car subway aircraft wheelchair scooter drone" speed="3.65" length="3.23" shape="32518.44,30030.08 32518.10,30030.90 32518.56,30031.67 32519.81,30032.38"/>
    </edge>
    <edge id=":10682532915_6" function="internal">
        <lane id=":10682532915_6_0" index="0" disallow="tram rail_urban rail rail_electric rail_fast ship container cable_car subway aircraft wheelchair scooter drone" speed="22.22" length="14.47" shape="32505.49,30033.91 32508.99,30032.94 32512.52,30032.59 32516.12,30032.52 32519.81,30032.38"/>
    </edge>
    <edge id=":10682532915_7" function="internal">
        <lane id=":10682532915_7_0" index="0" disallow="tram rail_urban rail rail_electric rail_fast ship container cable_car subway aircraft wheelchair scooter drone" speed="9.70" length="3.87" shape="32505.49,30033.91 32508.94,30032.14"/>
    </edge>
    <edge id=":10682532915_8" function="internal">
        <lane id=":10682532915_8_0" index="0" disallow="tram rail_urban rail rail_electric rail_fast ship container cable_car subway aircraft wheelchair scooter drone" speed="3.71" length="1.69" shape="32505.49,30033.91 32506.67,30032.97 32506.74,30032.81"/>
    </edge>
    <edge id=":10682532915_10" function="internal">
        <lane id=":10682532915_10_0" index="0" disallow="tram rail_urban rail rail_electric rail_fast ship container cable_car subway aircraft wheelchair scooter drone" speed="9.70" length="10.20" shape="32508.94,30032.14 32509.10,30032.06 32511.75,30029.75 32513.42,30027.00 32514.13,30023.80"/>
    </edge>
    <edge id=":10682532915_11" function="internal">
        <lane id=":10682532915_11_0" index="0" disallow="tram rail_urban rail rail_electric rail_fast ship container cable_car subway aircraft wheelchair scooter drone" speed="3.71" length="3.20" shape="32506.74,30032.81 32507.02,30032.11 32506.54,30031.31 32505.22,30030.57"/>
    </edge>
    <edge id=":10682532916_0" function="internal">
        <lane id=":10682532916_0_0" index="0" disallow="tram rail_urban rail rail_electric rail_fast ship container cable_car subway aircraft wheelchair scooter drone" speed="7.24" length="11.76" shape="30696.18,30432.67 30695.32,30436.83 30694.05,30439.68 30692.37,30441.23 30690.28,30441.48"/>
    </edge>
    <edge id=":10682532916_1" function="internal">
        <lane id=":10682532916_1_0" index="0" disallow="tram rail_urban rail rail_electric rail_fast ship container cable_car subway aircraft wheelchair scooter drone" speed="8.33" length="3.75" shape="30696.18,30432.67 30696.23,30436.43"/>
    </edge>
    <edge id=":10682532916_2" function="internal">
        <lane id=":10682532916_2_0" index="0" disallow="tram rail_urban rail rail_electric rail_fast ship container cable_car subway aircraft wheelchair scooter drone" speed="3.65" length="1.44" shape="30696.18,30432.67 30696.81,30433.97"/>
    </edge>
    <edge id=":10682532916_9" function="internal">
        <lane id=":10682532916_9_0" index="0" disallow="tram rail_urban rail rail_electric rail_fast ship container cable_car subway aircraft wheelchair scooter drone" speed="8.33" length="10.59" shape="30696.23,30436.43 30697.52,30439.40 30700.04,30441.59 30703.79,30443.01"/>
    </edge>
    <edge id=":10682532916_10" function="internal">
        <lane id=":10682532916_10_0" index="0" disallow="tram rail_urban rail rail_electric rail_fast ship container cable_car subway aircraft wheelchair scooter drone" speed="3.65" length="3.23" shape="30696.81,30433.97 30697.55,30434.47 30698.39,30434.19 30699.35,30433.10"/>
    </edge>
    <edge id=":10682532916_3" function="internal">
        <lane id=":10682532916_3_0" index="0" disallow="tram rail_urban rail rail_electric rail_fast ship container cable_car subway aircraft wheelchair scooter drone" speed="6.90" length="9.53" shape="30704.52,30439.89 30701.98,30438.95 30700.27,30437.50 30699.40,30435.55 30699.35,30433.10"/>
    </edge>
    <edge id=":10682532916_4" function="internal">
        <lane id=":10682532916_4_0" index="0" disallow="tram rail_urban rail rail_electric rail_fast ship container cable_car subway aircraft wheelchair scooter drone" speed="13.89" length="14.44" shape="30704.52,30439.89 30700.93,30439.78 30697.42,30440.58 30693.90,30441.44 30690.28,30441.48"/>
    </edge>
    <edge id=":10682532916_5" function="internal">
        <lane id=":10682532916_5_0" index="0" disallow="tram rail_urban rail rail_electric rail_fast ship container cable_car subway aircraft wheelchair scooter drone" speed="3.65" length="4.67" shape="30704.52,30439.89 30703.17,30440.40 30702.60,30441.08 30702.81,30441.95 30703.79,30443.01"/>
    </edge>
    <edge id=":10682532916_6" function="internal">
        <lane id=":10682532916_6_0" index="0" disallow="tram rail_urban rail rail_electric rail_fast ship container cable_car subway aircraft wheelchair scooter drone" speed="13.89" length="8.25" shape="30696.40,30445.79 30698.66,30445.52 30700.11,30444.32 30701.56,30443.16 30703.79,30443.01"/>
    </edge>
    <edge id=":10682532916_7" function="internal">
        <lane id=":10682532916_7_0" index="0" disallow="tram rail_urban rail rail_electric rail_fast ship container cable_car subway aircraft wheelchair scooter drone" speed="7.63" length="13.17" shape="30696.40,30445.79 30697.04,30445.08 30697.74,30442.73 30698.51,30438.73 30699.35,30433.10"/>
    </edge>
    <edge id=":10682532916_8" function="internal">
        <lane id=":10682532916_8_0" index="0" disallow="tram rail_urban rail rail_electric rail_fast ship container cable_car subway aircraft wheelchair scooter drone" speed="5.03" length="4.86" shape="30696.40,30445.79 30696.49,30442.42 30695.78,30441.11"/>
    </edge>
    <edge id=":10682532916_11" function="internal">
        <lane id=":10682532916_11_0" index="0" disallow="tram rail_urban rail rail_electric rail_fast ship container cable_car subway aircraft wheelchair scooter drone" speed="5.03" length="6.08" shape="30695.78,30441.11 30695.50,30440.58 30693.43,30440.27 30690.28,30441.48"/>
    </edge>
    <edge id=":10682532921_0" function="internal">
        <lane id=":10682532921_0_0" index="0" disallow="tram rail_urban rail rail_electric rail_fast ship container cable_car subway aircraft wheelchair scooter drone" speed="27.78" length="14.54" shape="30895.25,30426.48 30886.55,30414.95"/>
        <lane id=":10682532921_0_1" index="1" disallow="tram rail_urban rail rail_electric rail_fast ship container cable_car subway aircraft wheelchair scooter drone" speed="27.78" length="14.54" shape="30892.79,30428.52 30883.97,30416.83"/>
    </edge>
    <edge id=":10682532921_2" function="internal">
        <lane id=":10682532921_2_0" index="0" disallow="tram rail_urban rail rail_electric rail_fast ship container cable_car subway aircraft wheelchair scooter drone" speed="11.05" length="2.38" shape="30892.79,30428.52 30890.84,30427.17"/>
    </edge>
    <edge id=":10682532921_3" function="internal">
        <lane id=":10682532921_3_0" index="0" disallow="tram rail_urban rail rail_electric rail_fast ship container cable_car subway aircraft wheelchair scooter drone" speed="3.65" length="1.44" shape="30892.79,30428.52 30891.41,30428.11"/>
    </edge>
    <edge id=":10682532921_11" function="internal">
        <lane id=":10682532921_11_0" index="0" disallow="tram rail_urban rail rail_electric rail_fast ship container cable_car subway aircraft wheelchair scooter drone" speed="11.05" length="14.83" shape="30890.84,30427.17 30890.52,30426.95 30887.00,30426.18 30882.23,30426.23 30876.22,30427.09"/>
    </edge>
    <edge id=":10682532921_12" function="internal">
        <lane id=":10682532921_12_0" index="0" disallow="tram rail_urban rail rail_electric rail_fast ship container cable_car subway aircraft wheelchair scooter drone" speed="3.65" length="3.23" shape="30891.41,30428.11 30890.54,30428.31 30890.18,30429.13 30890.33,30430.57"/>
    </edge>
    <edge id=":10682532921_4" function="internal">
        <lane id=":10682532921_4_0" index="0" disallow="tram rail_urban rail rail_electric rail_fast ship container cable_car subway aircraft wheelchair scooter drone" speed="9.24" length="11.84" shape="30876.82,30430.24 30880.45,30429.82 30883.50,30430.08 30885.97,30431.01 30887.87,30432.61"/>
    </edge>
    <edge id=":10682532921_5" function="internal">
        <lane id=":10682532921_5_0" index="0" disallow="tram rail_urban rail rail_electric rail_fast ship container cable_car subway aircraft wheelchair scooter drone" speed="8.17" length="19.83" shape="30876.82,30430.24 30882.83,30428.34 30886.02,30425.47 30886.40,30421.64 30883.97,30416.83"/>
    </edge>
    <edge id=":10682532921_6" function="internal">
        <lane id=":10682532921_6_0" index="0" disallow="tram rail_urban rail rail_electric rail_fast ship container cable_car subway aircraft wheelchair scooter drone" speed="3.65" length="4.67" shape="30876.82,30430.24 30877.85,30429.23 30878.09,30428.37 30877.55,30427.65 30876.22,30427.09"/>
    </edge>
    <edge id=":10682532921_7" function="internal">
        <lane id=":10682532921_7_0" index="0" disallow="tram rail_urban rail rail_electric rail_fast ship container cable_car subway aircraft wheelchair scooter drone" speed="5.76" length="9.17" shape="30878.79,30420.60 30880.07,30422.98 30880.06,30424.86 30878.78,30426.23 30876.22,30427.09"/>
    </edge>
    <edge id=":10682532921_8" function="internal">
        <lane id=":10682532921_8_0" index="0" disallow="tram rail_urban rail rail_electric rail_fast ship container cable_car subway aircraft wheelchair scooter drone" speed="27.78" length="14.96" shape="30878.79,30420.60 30887.87,30432.61"/>
        <lane id=":10682532921_8_1" index="1" disallow="tram rail_urban rail rail_electric rail_fast ship container cable_car subway aircraft wheelchair scooter drone" speed="27.78" length="14.96" shape="30881.38,30418.71 30890.33,30430.57"/>
    </edge>
    <edge id=":10682532921_10" function="internal">
        <lane id=":10682532921_10_0" index="0" disallow="tram rail_urban rail rail_electric rail_fast ship container cable_car subway aircraft wheelchair scooter drone" speed="3.65" length="1.44" shape="30881.38,30418.71 30882.73,30419.21"/>
    </edge>
    <edge id=":10682532921_13" function="internal">
        <lane id=":10682532921_13_0" index="0" disallow="tram rail_urban rail rail_electric rail_fast ship container cable_car subway aircraft wheelchair scooter drone" speed="3.65" length="3.23" shape="30882.73,30419.21 30883.61,30419.07 30884.02,30418.27 30883.97,30416.83"/>
    </edge>
    <edge id=":10682532922_0" function="internal">
        <lane id=":10682532922_0_0" index="0" disallow="tram rail_urban rail rail_electric rail_fast ship container cable_car subway aircraft wheelchair scooter drone" speed="13.89" length="14.41" shape="32492.18,29717.68 32488.54,29718.38 32484.95,29718.89 32481.53,29719.73 32478.42,29721.47"/>
    </edge>
    <edge id=":10682532922_1" function="internal">
        <lane id=":10682532922_1_0" index="0" disallow="tram rail_urban rail rail_electric rail_fast ship container cable_car subway aircraft wheelchair scooter drone" speed="7.87" length="3.50" shape="32492.18,29717.68 32488.96,29719.07"/>
    </edge>
    <edge id=":10682532922_2" function="internal">
        <lane id=":10682532922_2_0" index="0" disallow="tram rail_urban rail rail_electric rail_fast ship container cable_car subway aircraft wheelchair scooter drone" speed="3.65" length="1.44" shape="32492.18,29717.68 32491.23,29718.77"/>
    </edge>
    <edge id=":10682532922_9" function="internal">
        <lane id=":10682532922_9_0" index="0" disallow="tram rail_urban rail rail_electric rail_fast ship container cable_car subway aircraft wheelchair scooter drone" speed="7.87" length="11.00" shape="32488.96,29719.07 32488.49,29719.28 32486.30,29721.65 32485.60,29724.81 32486.40,29728.75"/>
    </edge>
    <edge id=":10682532922_10" function="internal">
        <lane id=":10682532922_10_0" index="0" disallow="tram rail_urban rail rail_electric rail_fast ship container cable_car subway aircraft wheelchair scooter drone" speed="3.65" length="3.23" shape="32491.23,29718.77 32491.05,29719.64 32491.65,29720.31 32493.01,29720.77"/>
    </edge>
    <edge id=":10682532922_3" function="internal">
        <lane id=":10682532922_3_0" index="0" disallow="tram rail_urban rail rail_electric rail_fast ship container cable_car subway aircraft wheelchair scooter drone" speed="6.34" length="9.04" shape="32489.42,29727.67 32488.92,29725.21 32489.35,29723.24 32490.72,29721.76 32493.01,29720.77"/>
    </edge>
    <edge id=":10682532922_4" function="internal">
        <lane id=":10682532922_4_0" index="0" disallow="tram rail_urban rail rail_electric rail_fast ship container cable_car subway aircraft wheelchair scooter drone" speed="7.51" length="15.57" shape="32489.42,29727.67 32487.16,29722.89 32484.57,29720.26 32481.66,29719.79 32478.42,29721.47"/>
    </edge>
    <edge id=":10682532922_5" function="internal">
        <lane id=":10682532922_5_0" index="0" disallow="tram rail_urban rail rail_electric rail_fast ship container cable_car subway aircraft wheelchair scooter drone" speed="3.65" length="4.67" shape="32489.42,29727.67 32488.26,29726.81 32487.37,29726.70 32486.75,29727.35 32486.40,29728.75"/>
    </edge>
    <edge id=":10682532922_6" function="internal">
        <lane id=":10682532922_6_0" index="0" disallow="tram rail_urban rail rail_electric rail_fast ship container cable_car subway aircraft wheelchair scooter drone" speed="6.15" length="9.98" shape="32479.32,29724.85 32481.42,29723.76 32483.30,29724.04 32484.96,29725.70 32486.40,29728.75"/>
    </edge>
    <edge id=":10682532922_7" function="internal">
        <lane id=":10682532922_7_0" index="0" disallow="tram rail_urban rail rail_electric rail_fast ship container cable_car subway aircraft wheelchair scooter drone" speed="13.89" length="14.42" shape="32479.32,29724.85 32482.42,29723.07 32485.82,29722.12 32489.39,29721.52 32493.01,29720.77"/>
    </edge>
    <edge id=":10682532922_8" function="internal">
        <lane id=":10682532922_8_0" index="0" disallow="tram rail_urban rail rail_electric rail_fast ship container cable_car subway aircraft wheelchair scooter drone" speed="3.76" length="1.92" shape="32479.32,29724.85 32480.37,29723.67 32480.44,29723.33"/>
    </edge>
    <edge id=":10682532922_11" function="internal">
        <lane id=":10682532922_11_0" index="0" disallow="tram rail_urban rail rail_electric rail_fast ship container cable_car subway aircraft wheelchair scooter drone" speed="3.76" length="3.20" shape="32480.44,29723.33 32480.56,29722.71 32479.92,29721.97 32478.42,29721.47"/>
    </edge>
    <edge id=":10682532927_0" function="internal">
        <lane id=":10682532927_0_0" index="0" disallow="tram rail_urban rail rail_electric rail_fast ship container cable_car subway aircraft wheelchair scooter drone" speed="6.15" length="9.06" shape="32481.55,29832.13 32479.22,29833.17 32477.24,29833.12 32475.61,29831.99 32474.34,29829.78"/>
    </edge>
    <edge id=":10682532927_1" function="internal">
        <lane id=":10682532927_1_0" index="0" disallow="tram rail_urban rail rail_electric rail_fast ship container cable_car subway aircraft wheelchair scooter drone" speed="8.67" length="14.52" shape="32481.55,29832.13 32478.33,29834.73 32476.46,29837.65 32475.94,29840.88 32476.75,29844.44"/>
    </edge>
    <edge id=":10682532927_2" function="internal">
        <lane id=":10682532927_2_0" index="0" disallow="tram rail_urban rail rail_electric rail_fast ship container cable_car subway aircraft wheelchair scooter drone" speed="3.65" length="4.67" shape="32481.55,29832.13 32480.96,29833.45 32481.04,29834.34 32481.81,29834.80 32483.25,29834.84"/>
    </edge>
    <edge id=":10682532927_3" function="internal">
        <lane id=":10682532927_3_0" index="0" disallow="tram rail_urban rail rail_electric rail_fast ship container cable_car subway aircraft wheelchair scooter drone" speed="7.29" length="10.02" shape="32479.72,29843.25 32479.20,29840.87 32479.61,29838.67 32480.96,29836.66 32483.25,29834.84"/>
    </edge>
    <edge id=":10682532927_4" function="internal">
        <lane id=":10682532927_4_0" index="0" disallow="tram rail_urban rail rail_electric rail_fast ship container cable_car subway aircraft wheelchair scooter drone" speed="13.89" length="14.51" shape="32479.72,29843.25 32474.34,29829.78"/>
    </edge>
    <edge id=":10682532927_5" function="internal">
        <lane id=":10682532927_5_0" index="0" disallow="tram rail_urban rail rail_electric rail_fast ship container cable_car subway aircraft wheelchair scooter drone" speed="3.65" length="1.44" shape="32479.72,29843.25 32478.54,29842.44"/>
    </edge>
    <edge id=":10682532927_9" function="internal">
        <lane id=":10682532927_9_0" index="0" disallow="tram rail_urban rail rail_electric rail_fast ship container cable_car subway aircraft wheelchair scooter drone" speed="3.65" length="3.23" shape="32478.54,29842.44 32477.64,29842.36 32477.05,29843.03 32476.75,29844.44"/>
    </edge>
    <edge id=":10682532927_6" function="internal">
        <lane id=":10682532927_6_0" index="0" disallow="tram rail_urban rail rail_electric rail_fast ship container cable_car subway aircraft wheelchair scooter drone" speed="13.89" length="14.50" shape="32471.37,29830.97 32476.75,29844.44"/>
    </edge>
    <edge id=":10682532927_7" function="internal">
        <lane id=":10682532927_7_0" index="0" disallow="tram rail_urban rail rail_electric rail_fast ship container cable_car subway aircraft wheelchair scooter drone" speed="7.72" length="4.20" shape="32471.37,29830.97 32473.47,29834.61"/>
    </edge>
    <edge id=":10682532927_8" function="internal">
        <lane id=":10682532927_8_0" index="0" disallow="tram rail_urban rail rail_electric rail_fast ship container cable_car subway aircraft wheelchair scooter drone" speed="3.65" length="1.44" shape="32471.37,29830.97 32472.55,29831.79"/>
    </edge>
    <edge id=":10682532927_10" function="internal">
        <lane id=":10682532927_10_0" index="0" disallow="tram rail_urban rail rail_electric rail_fast ship container cable_car subway aircraft wheelchair scooter drone" speed="7.72" length="10.72" shape="32473.47,29834.61 32476.15,29836.47 32479.41,29836.55 32483.25,29834.84"/>
    </edge>
    <edge id=":10682532927_11" function="internal">
        <lane id=":10682532927_11_0" index="0" disallow="tram rail_urban rail rail_electric rail_fast ship container cable_car subway aircraft wheelchair scooter drone" speed="3.65" length="3.23" shape="32472.55,29831.79 32473.45,29831.86 32474.04,29831.20 32474.34,29829.78"/>
    </edge>
    <edge id=":10756647822_0" function="internal">
        <lane id=":10756647822_0_0" index="0" disallow="tram rail_urban rail rail_electric rail_fast ship container cable_car subway aircraft wheelchair scooter drone" speed="13.89" length="17.54" shape="31645.06,29814.64 31642.12,29811.70 31638.90,29808.36 31635.88,29804.86 31633.53,29801.47"/>
    </edge>
    <edge id=":10756647822_1" function="internal">
        <lane id=":10756647822_1_0" index="0" disallow="tram rail_urban rail rail_electric rail_fast ship container cable_car subway aircraft wheelchair scooter drone" speed="7.56" length="21.36" shape="31645.06,29814.64 31639.60,29810.16 31636.04,29809.52 31634.37,29812.73 31634.59,29819.79"/>
    </edge>
    <edge id=":10756647822_2" function="internal">
        <lane id=":10756647822_2_0" index="0" disallow="tram rail_urban rail rail_electric rail_fast ship container cable_car subway aircraft wheelchair scooter drone" speed="3.65" length="4.67" shape="31645.06,29814.64 31643.64,29814.35 31642.80,29814.64 31642.51,29815.48 31642.80,29816.90"/>
    </edge>
    <edge id=":10756647822_3" function="internal">
        <lane id=":10756647822_3_0" index="0" disallow="tram rail_urban rail rail_electric rail_fast ship container cable_car subway aircraft wheelchair scooter drone" speed="5.46" length="10.26" shape="31637.77,29819.38 31637.66,29815.98 31638.46,29814.44 31640.17,29814.75 31642.80,29816.90"/>
    </edge>
    <edge id=":10756647822_4" function="internal">
        <lane id=":10756647822_4_0" index="0" disallow="tram rail_urban rail rail_electric rail_fast ship container cable_car subway aircraft wheelchair scooter drone" speed="18.05" length="18.48" shape="31637.77,29819.38 31637.18,29815.10 31636.34,29810.19 31635.15,29805.40 31633.53,29801.47"/>
    </edge>
    <edge id=":10756647822_5" function="internal">
        <lane id=":10756647822_5_0" index="0" disallow="tram rail_urban rail rail_electric rail_fast ship container cable_car subway aircraft wheelchair scooter drone" speed="3.65" length="1.44" shape="31637.77,29819.38 31636.82,29818.29"/>
    </edge>
    <edge id=":10756647822_9" function="internal">
        <lane id=":10756647822_9_0" index="0" disallow="tram rail_urban rail rail_electric rail_fast ship container cable_car subway aircraft wheelchair scooter drone" speed="3.65" length="3.23" shape="31636.82,29818.29 31635.97,29818.00 31635.23,29818.50 31634.59,29819.79"/>
    </edge>
    <edge id=":10756647822_6" function="internal">
        <lane id=":10756647822_6_0" index="0" disallow="tram rail_urban rail rail_electric rail_fast ship container cable_car subway aircraft wheelchair scooter drone" speed="18.05" length="17.25" shape="31630.75,29803.06 31632.31,29806.81 31633.36,29811.19 31634.07,29815.70 31634.59,29819.79"/>
    </edge>
    <edge id=":10756647822_7" function="internal">
        <lane id=":10756647822_7_0" index="0" disallow="tram rail_urban rail rail_electric rail_fast ship container cable_car subway aircraft wheelchair scooter drone" speed="13.89" length="18.38" shape="31630.75,29803.06 31633.19,29806.56 31636.38,29810.28 31639.77,29813.86 31642.80,29816.90"/>
    </edge>
    <edge id=":10756647822_8" function="internal">
        <lane id=":10756647822_8_0" index="0" disallow="tram rail_urban rail rail_electric rail_fast ship container cable_car subway aircraft wheelchair scooter drone" speed="3.65" length="1.31" shape="31630.75,29803.06 31631.93,29803.65"/>
    </edge>
    <edge id=":10756647822_10" function="internal">
        <lane id=":10756647822_10_0" index="0" disallow="tram rail_urban rail rail_electric rail_fast ship container cable_car subway aircraft wheelchair scooter drone" speed="3.65" length="3.36" shape="31631.93,29803.65 31632.05,29803.71 31632.94,29803.66 31633.43,29802.91 31633.53,29801.47"/>
    </edge>
    <edge id=":10756647823_0" function="internal">
        <lane id=":10756647823_0_0" index="0" disallow="tram rail_urban rail rail_electric rail_fast ship container cable_car subway aircraft wheelchair scooter drone" speed="6.99" length="10.45" shape="31704.47,29864.45 31702.07,29866.24 31699.74,29866.90 31697.47,29866.44 31695.28,29864.84"/>
    </edge>
    <edge id=":10756647823_1" function="internal">
        <lane id=":10756647823_1_0" index="0" disallow="tram rail_urban rail rail_electric rail_fast ship container cable_car subway aircraft wheelchair scooter drone" speed="27.78" length="15.81" shape="31704.47,29864.45 31701.65,29867.10 31698.63,29869.77 31695.54,29872.36 31692.49,29874.75"/>
    </edge>
    <edge id=":10756647823_2" function="internal">
        <lane id=":10756647823_2_0" index="0" disallow="tram rail_urban rail rail_electric rail_fast ship container cable_car subway aircraft wheelchair scooter drone" speed="7.57" length="4.31" shape="31704.47,29864.45 31701.83,29867.85"/>
    </edge>
    <edge id=":10756647823_3" function="internal">
        <lane id=":10756647823_3_0" index="0" disallow="tram rail_urban rail rail_electric rail_fast ship container cable_car subway aircraft wheelchair scooter drone" speed="3.65" length="1.44" shape="31704.47,29864.45 31704.17,29865.86"/>
    </edge>
    <edge id=":10756647823_16" function="internal">
        <lane id=":10756647823_16_0" index="0" disallow="tram rail_urban rail rail_electric rail_fast ship container cable_car subway aircraft wheelchair scooter drone" speed="7.57" length="11.19" shape="31701.83,29867.85 31701.74,29867.96 31701.10,29871.20 31702.57,29874.15 31706.14,29876.81"/>
    </edge>
    <edge id=":10756647823_17" function="internal">
        <lane id=":10756647823_17_0" index="0" disallow="tram rail_urban rail rail_electric rail_fast ship container cable_car subway aircraft wheelchair scooter drone" speed="3.65" length="3.23" shape="31704.17,29865.86 31704.44,29866.71 31705.28,29867.01 31706.70,29866.75"/>
    </edge>