<?xml version="1.0" encoding="UTF-8"?>

<!-- generated on 2024-09-15 21:41:08.857819 by randomTrips.py v1_20_0+0002-343658e7c64
<configuration>
    <net-file value="map.net.xml"/>
    <route-file value="map.rou.xml"/>
    <length value="True"/>
    <end value="100.0"/>
</configuration>
-->

<routes xmlns:xsi="http://www.w3.org/2001/XMLSchema-instance" xsi:noNamespaceSchemaLocation="http://sumo.dlr.de/xsd/routes_file.xsd">
    <trip id="0" depart="0.00" from="1265720148" to="-1264821839#1"/>
    <trip id="1" depart="1.00" from="-406996131#5" to="-336299347"/>
    <trip id="2" depart="2.00" from="336292481#0" to="335958254#2"/>
    <trip id="3" depart="3.00" from="562373932#8" to="-1265213763#0"/>
    <trip id="4" depart="4.00" from="-562398256#3" to="-1264821842#1"/>
    <trip id="5" depart="5.00" from="-336299344#1" to="1156697367#9"/>
    <trip id="6" depart="6.00" from="-1264821839#2" to="-336290091#3"/>
    <trip id="7" depart="7.00" from="335956294#1" to="121213609#5"/>
    <trip id="8" depart="8.00" from="-336299346#0" to="1265206640"/>
    <trip id="9" depart="9.00" from="442181554#0" to="-1156697365#1"/>
    <trip id="10" depart="10.00" from="406996131#4" to="335962144#5"/>
    <trip id="11" depart="11.00" from="-562373932#8" to="-335962139#3"/>
    <trip id="12" depart="12.00" from="84734698#0" to="-562373932#8"/>
    <trip id="13" depart="13.00" from="-1265213766#1" to="-1265213775"/>
    <trip id="14" depart="14.00" from="495387667#2" to="1265206694"/>
    <trip id="15" depart="15.00" from="406996131#5" to="336290091#3"/>
    <trip id="16" depart="16.00" from="121213609#0" to="84734698#0"/>
    <trip id="17" depart="17.00" from="-562373932#9" to="1264821838"/>
    <trip id="18" depart="18.00" from="495169371" to="1265213763#1"/>
    <trip id="19" depart="19.00" from="562373932#7" to="1265189460#0"/>
    <trip id="20" depart="20.00" from="335966497#3" to="-1265067100#1"/>
    <trip id="21" depart="21.00" from="-336299350#3" to="-442181554#4"/>
    <trip id="22" depart="22.00" from="-1265206701" to="-336299358"/>
    <trip id="23" depart="23.00" from="-1265421682" to="-442181554#0"/>
    <trip id="24" depart="24.00" from="1265421745" to="-562373932#8"/>
    <trip id="25" depart="25.00" from="-562373932#9" to="-336292483#1"/>
    <trip id="26" depart="26.00" from="-406996131#10" to="562392779"/>
    <trip id="27" depart="27.00" from="1267913908#1" to="1265206704"/>
    <trip id="28" depart="28.00" from="-335966497#10" to="336290091#3"/>
    <trip id="29" depart="29.00" from="-335962144#1" to="-562373932#9"/>
    <trip id="30" depart="30.00" from="84734698#0" to="1265720149"/>
    <trip id="31" depart="31.00" from="1264821839#5" to="335962139#1"/>
    <trip id="32" depart="32.00" from="495387667#2" to="397279144#1"/>
    <trip id="33" depart="33.00" from="-336299350#3" to="-1265047791#1"/>
    <trip id="34" depart="34.00" from="-495387667#2" to="-406996131#10"/>
    <trip id="35" depart="35.00" from="-336292484" to="562398256#0"/>
    <trip id="36" depart="36.00" from="562373932#8" to="-495387667#2"/>
    <trip id="37" depart="37.00" from="335956294#4" to="-562392090#2"/>
    <trip id="38" depart="38.00" from="562374426#4" to="-84734698#0"/>
    <trip id="39" depart="39.00" from="-406996131#10" to="-397279144#4"/>
    <trip id="40" depart="40.00" from="1265047791#1" to="-406996131#10"/>
    <trip id="41" depart="41.00" from="1265197090" to="562373932#8"/>
    <trip id="42" depart="42.00" from="-562392090#2" to="-336299344#3"/>
    <trip id="43" depart="43.00" from="84734698#0" to="1156697382#1"/>
    <trip id="44" depart="44.00" from="-1265213763#1" to="-1265189458"/>
    <trip id="45" depart="45.00" from="-1265421746#1" to="1265213776"/>
    <trip id="46" depart="46.00" from="406996131#10" to="-562398256#3"/>
    <trip id="47" depart="47.00" from="-1265206661" to="-562374426#3"/>
    <trip id="48" depart="48.00" from="84734698#0" to="121213609#0"/>
    <trip id="49" depart="49.00" from="84734698#0" to="562373932#7"/>
    <trip id="50" depart="50.00" from="-1156697382#1" to="336290091#2"/>
    <trip id="51" depart="51.00" from="335959895" to="121213609#0"/>
    <trip id="52" depart="52.00" from="-406996131#10" to="1265743117"/>
    <trip id="53" depart="53.00" from="-1265720148" to="-84734698#0"/>
    <trip id="54" depart="54.00" from="-84734698#0" to="562398256#3"/>
    <trip id="55" depart="55.00" from="562373932#8" to="-406996131#10"/>
    <trip id="56" depart="56.00" from="1156697367#13" to="-335966497#9"/>
    <trip id="57" depart="57.00" from="562374426#0" to="562373932#8"/>
    <trip id="58" depart="58.00" from="-495169883" to="1265720147"/>
    <trip id="59" depart="59.00" from="1265206704" to="-335962139#1"/>
    <trip id="60" depart="60.00" from="336299350#3" to="121213609#0"/>
    <trip id="61" depart="61.00" from="397279144#4" to="121213609#0"/>
    <trip id="62" depart="62.00" from="-1148135921#1" to="-562373932#3"/>
    <trip id="63" depart="63.00" from="-1156697385" to="562392090#2"/>
    <trip id="64" depart="64.00" from="562373932#8" to="495169883"/>
    <trip id="65" depart="65.00" from="-495370419#1" to="-1265206639"/>
    <trip id="66" depart="66.00" from="562373932#8" to="562398256#0"/>
    <trip id="67" depart="67.00" from="-1265213763#0" to="1156697367#13"/>
    <trip id="68" depart="68.00" from="-1265206689" to="336299350#3"/>
    <trip id="69" depart="69.00" from="336299362#0" to="-335956294#5"/>
    <trip id="70" depart="70.00" from="1156697363#1" to="1264821838"/>
    <trip id="71" depart="71.00" from="-406996131#10" to="562373932#8"/>
    <trip id="72" depart="72.00" from="-562398256#3" to="-336292484"/>
    <trip id="73" depart="73.00" from="121213609#0" to="336290091#3"/>
    <trip id="74" depart="74.00" from="-336290091#4" to="-495387667#2"/>
    <trip id="75" depart="75.00" from="84734698#0" to="335956294#1"/>
    <trip id="76" depart="76.00" from="-84734698#0" to="1156697385"/>
    <trip id="77" depart="77.00" from="-335956294#0" to="-336299347"/>
    <trip id="78" depart="78.00" from="-562373932#8" to="1265206639"/>
    <trip id="79" depart="79.00" from="-336299350#3" to="-336299346#0"/>
    <trip id="80" depart="80.00" from="-1265206690#0" to="1265421685#0"/>
    <trip id="81" depart="81.00" from="-336299350#3" to="562373932#9"/>
    <trip id="82" depart="82.00" from="562373932#7" to="-1265206690#0"/>
    <trip id="83" depart="83.00" from="-336299364" to="335958253#3"/>
    <trip id="84" depart="84.00" from="-336299343#1" to="-335958253#0"/>
    <trip id="85" depart="85.00" from="562392779" to="1265067095#0"/>
    <trip id="86" depart="86.00" from="1156697363#0" to="406996130"/>
    <trip id="87" depart="87.00" from="406996131#6" to="-336290091#2"/>
    <trip id="88" depart="88.00" from="-1265213775" to="-84734698#0"/>
    <trip id="89" depart="89.00" from="-562398256#3" to="-84734698#1"/>
    <trip id="90" depart="90.00" from="336290091#3" to="335958254#0"/>
    <trip id="91" depart="91.00" from="84734698#0" to="-1265213775"/>
    <trip id="92" depart="92.00" from="-562392263#1" to="-562373932#8"/>
    <trip id="93" depart="93.00" from="562373932#7" to="-406996130"/>
    <trip id="94" depart="94.00" from="-336290091#2" to="-84734698#0"/>
    <trip id="95" depart="95.00" from="-562398256#3" to="-442181554#0"/>
    <trip id="96" depart="96.00" from="-406996130" to="562374426#7"/>
    <trip id="97" depart="97.00" from="-84734698#0" to="562373932#7"/>
    <trip id="98" depart="98.00" from="1264821838" to="-1265189461"/>
    <trip id="99" depart="99.00" from="84734698#1" to="495366000#1"/>
</routes>
